<?xml version="1.0" encoding="UTF-8"?>

<!-- generated on 2025-11-02 09:29:58 by Eclipse SUMO netedit Version 1.24.0
<neteditConfiguration xmlns:xsi="http://www.w3.org/2001/XMLSchema-instance" xsi:noNamespaceSchemaLocation="http://sumo.dlr.de/xsd/neteditConfiguration.xsd">

    <input>
        <sumo-net-file value="C:\Users\DELL\Downloads\map.net.xml"/>
    </input>

    <output>
        <output-file value="C:\Users\DELL\Downloads\map.net.xml"/>
    </output>

    <processing>
        <geometry.min-radius.fix.railways value="false"/>
        <geometry.avoid-overlap value="false"/>
        <geometry.max-grade.fix value="false"/>
        <offset.disable-normalization value="true"/>
        <lefthand value="0"/>
    </processing>

    <junctions>
        <no-turnarounds value="true"/>
        <junctions.corner-detail value="5"/>
        <junctions.limit-turn-speed value="5.50"/>
        <rectangular-lane-cut value="0"/>
    </junctions>

    <pedestrian>
        <walkingareas value="0"/>
    </pedestrian>

</neteditConfiguration>
-->

<net version="1.20" junctionCornerDetail="5" limitTurnSpeed="5.50" avoidOverlap="0" xmlns:xsi="http://www.w3.org/2001/XMLSchema-instance" xsi:noNamespaceSchemaLocation="http://sumo.dlr.de/xsd/net_file.xsd">

    <location netOffset="-684250.61,-1192204.62" convBoundary="278.17,124.06,1417.97,1201.66" origBoundary="106.685213,10.780358,106.698116,10.795657" projParameter="+proj=utm +zone=48 +ellps=WGS84 +datum=WGS84 +units=m +no_defs"/>

    <type id="highway.primary" priority="12" numLanes="2" speed="27.78" disallow="tram rail_urban rail rail_electric rail_fast ship container cable_car subway aircraft wheelchair scooter drone" oneway="0"/>
    <type id="highway.primary_link" priority="7" numLanes="1" speed="22.22" disallow="tram rail_urban rail rail_electric rail_fast ship container cable_car subway aircraft wheelchair scooter drone" oneway="0"/>
    <type id="highway.residential" priority="3" numLanes="1" speed="13.89" disallow="tram rail_urban rail rail_electric rail_fast ship container cable_car subway aircraft wheelchair scooter drone" oneway="0"/>
    <type id="highway.secondary" priority="11" numLanes="1" speed="27.78" disallow="tram rail_urban rail rail_electric rail_fast ship container cable_car subway aircraft wheelchair scooter drone" oneway="0"/>
    <type id="highway.service" priority="1" numLanes="1" speed="5.56" allow="pedestrian delivery bicycle" oneway="0"/>
    <type id="highway.tertiary" priority="10" numLanes="1" speed="22.22" disallow="tram rail_urban rail rail_electric rail_fast ship container cable_car subway aircraft wheelchair scooter drone" oneway="0"/>

    <edge id=":10289893322_0" function="internal">
        <lane id=":10289893322_0_0" index="0" disallow="tram rail_urban rail rail_electric rail_fast ship container cable_car subway aircraft wheelchair scooter drone" speed="22.22" length="0.30" shape="1205.71,822.06 1205.94,821.87"/>
        <lane id=":10289893322_0_1" index="1" disallow="tram rail_urban rail rail_electric rail_fast ship container cable_car subway aircraft wheelchair scooter drone" speed="22.22" length="0.30" shape="1207.84,824.46 1208.07,824.25"/>
    </edge>
    <edge id=":10291112014_0" function="internal">
        <lane id=":10291112014_0_0" index="0" disallow="tram rail_urban rail rail_electric rail_fast ship container cable_car subway aircraft wheelchair scooter drone" speed="27.78" length="0.10" shape="963.43,705.54 963.43,705.54"/>
        <lane id=":10291112014_0_1" index="1" disallow="tram rail_urban rail rail_electric rail_fast ship container cable_car subway aircraft wheelchair scooter drone" speed="27.78" length="0.10" shape="961.12,707.75 961.12,707.75"/>
        <lane id=":10291112014_0_2" index="2" disallow="tram rail_urban rail rail_electric rail_fast ship container cable_car subway aircraft wheelchair scooter drone" speed="27.78" length="0.10" shape="958.81,709.96 958.81,709.96"/>
    </edge>
    <edge id=":10823867802_0" function="internal">
        <lane id=":10823867802_0_0" index="0" disallow="tram rail_urban rail rail_electric rail_fast ship container cable_car subway aircraft wheelchair scooter drone" speed="27.78" length="0.10" shape="635.97,726.04 635.97,726.04"/>
        <lane id=":10823867802_0_1" index="1" disallow="tram rail_urban rail rail_electric rail_fast ship container cable_car subway aircraft wheelchair scooter drone" speed="27.78" length="0.10" shape="638.24,723.79 638.24,723.79"/>
        <lane id=":10823867802_0_2" index="2" disallow="tram rail_urban rail rail_electric rail_fast ship container cable_car subway aircraft wheelchair scooter drone" speed="27.78" length="0.10" shape="640.51,721.54 640.51,721.54"/>
    </edge>
    <edge id=":10823867804_0" function="internal">
        <lane id=":10823867804_0_0" index="0" disallow="tram rail_urban rail rail_electric rail_fast ship container cable_car subway aircraft wheelchair scooter drone" speed="27.78" length="0.10" shape="624.83,714.80 624.83,714.80"/>
        <lane id=":10823867804_0_1" index="1" disallow="tram rail_urban rail rail_electric rail_fast ship container cable_car subway aircraft wheelchair scooter drone" speed="27.78" length="0.10" shape="627.10,712.55 627.10,712.55"/>
        <lane id=":10823867804_0_2" index="2" disallow="tram rail_urban rail rail_electric rail_fast ship container cable_car subway aircraft wheelchair scooter drone" speed="27.78" length="0.10" shape="629.37,710.30 629.37,710.30"/>
    </edge>
    <edge id=":11041706040_0" function="internal">
        <lane id=":11041706040_0_0" index="0" disallow="tram rail_urban rail rail_electric rail_fast ship container cable_car subway aircraft wheelchair scooter drone" speed="22.22" length="0.10" shape="908.71,502.86 908.71,502.86"/>
    </edge>
    <edge id=":11041706040_1" function="internal">
        <lane id=":11041706040_1_0" index="0" disallow="tram rail_urban rail rail_electric rail_fast ship container cable_car subway aircraft wheelchair scooter drone" speed="22.22" length="0.10" shape="906.57,500.48 906.57,500.48"/>
    </edge>
    <edge id=":11187279715_0" function="internal">
        <lane id=":11187279715_0_0" index="0" disallow="tram rail_urban rail rail_electric rail_fast ship container cable_car subway aircraft wheelchair scooter drone" speed="22.22" length="0.30" shape="936.05,478.21 935.83,478.41"/>
    </edge>
    <edge id=":11187279715_1" function="internal">
        <lane id=":11187279715_1_0" index="0" disallow="tram rail_urban rail rail_electric rail_fast ship container cable_car subway aircraft wheelchair scooter drone" speed="22.22" length="0.30" shape="933.69,476.03 933.91,475.83"/>
    </edge>
    <edge id=":11187291229_0" function="internal">
        <lane id=":11187291229_0_0" index="0" disallow="tram rail_urban rail rail_electric rail_fast ship container cable_car subway aircraft wheelchair scooter drone" speed="27.78" length="0.30" shape="1045.10,583.53 1045.34,583.35"/>
    </edge>
    <edge id=":11364145943_0" function="internal">
        <lane id=":11364145943_0_0" index="0" disallow="tram rail_urban rail rail_electric rail_fast ship container cable_car subway aircraft wheelchair scooter drone" speed="27.78" length="6.65" shape="1175.53,927.42 1180.12,932.23"/>
        <lane id=":11364145943_0_1" index="1" disallow="tram rail_urban rail rail_electric rail_fast ship container cable_car subway aircraft wheelchair scooter drone" speed="27.78" length="6.65" shape="1173.21,929.63 1177.81,934.44"/>
        <lane id=":11364145943_0_2" index="2" disallow="tram rail_urban rail rail_electric rail_fast ship container cable_car subway aircraft wheelchair scooter drone" speed="27.78" length="6.65" shape="1170.90,931.84 1175.50,936.66"/>
    </edge>
    <edge id=":11364145943_3" function="internal">
        <lane id=":11364145943_3_0" index="0" disallow="tram rail_urban rail rail_electric rail_fast ship container cable_car subway aircraft wheelchair scooter drone" speed="7.24" length="7.86" shape="1169.34,936.50 1172.45,934.98 1174.90,934.13 1176.68,933.95 1177.81,934.44"/>
        <lane id=":11364145943_3_1" index="1" disallow="tram rail_urban rail rail_electric rail_fast ship container cable_car subway aircraft wheelchair scooter drone" speed="6.29" length="7.86" shape="1169.34,936.50 1171.21,935.71 1172.86,935.47 1174.29,935.79 1175.50,936.66"/>
    </edge>
    <edge id=":11395574631_0" function="internal">
        <lane id=":11395574631_0_0" index="0" disallow="tram rail_urban rail rail_electric rail_fast ship container cable_car subway aircraft wheelchair scooter drone" speed="16.67" length="0.30" shape="600.01,549.88 599.79,550.09"/>
        <lane id=":11395574631_0_1" index="1" disallow="tram rail_urban rail rail_electric rail_fast ship container cable_car subway aircraft wheelchair scooter drone" speed="16.67" length="0.30" shape="597.83,547.54 597.61,547.74"/>
        <lane id=":11395574631_0_2" index="2" disallow="tram rail_urban rail rail_electric rail_fast ship container cable_car subway aircraft wheelchair scooter drone" speed="16.67" length="0.30" shape="595.65,545.19 595.43,545.40"/>
    </edge>
    <edge id=":11753290071_0" function="internal">
        <lane id=":11753290071_0_0" index="0" disallow="tram rail_urban rail rail_electric rail_fast ship container cable_car subway aircraft wheelchair scooter drone" speed="17.79" length="9.75" shape="327.02,1165.59 325.13,1167.53 324.19,1169.16 323.53,1170.99 322.52,1173.58"/>
        <lane id=":11753290071_0_1" index="1" disallow="tram rail_urban rail rail_electric rail_fast ship container cable_car subway aircraft wheelchair scooter drone" speed="18.59" length="9.75" shape="327.02,1165.59 324.57,1167.39 322.67,1168.46 321.09,1169.77 319.60,1172.27"/>
    </edge>
    <edge id=":11753290071_2" function="internal">
        <lane id=":11753290071_2_0" index="0" disallow="tram rail_urban rail rail_electric rail_fast ship container cable_car subway aircraft wheelchair scooter drone" speed="3.65" length="1.44" shape="327.02,1165.59 325.59,1165.79"/>
    </edge>
    <edge id=":11753290071_5" function="internal">
        <lane id=":11753290071_5_0" index="0" disallow="tram rail_urban rail rail_electric rail_fast ship container cable_car subway aircraft wheelchair scooter drone" speed="3.65" length="3.23" shape="325.59,1165.79 324.77,1165.45 324.54,1164.59 324.91,1163.20"/>
    </edge>
    <edge id=":11753290071_3" function="internal">
        <lane id=":11753290071_3_0" index="0" disallow="tram rail_urban rail rail_electric rail_fast ship container cable_car subway aircraft wheelchair scooter drone" speed="13.66" length="9.13" shape="316.40,1165.81 319.10,1165.46 321.04,1165.30 322.78,1164.73 324.91,1163.20"/>
    </edge>
    <edge id=":11753290071_4" function="internal">
        <lane id=":11753290071_4_0" index="0" disallow="tram rail_urban rail rail_electric rail_fast ship container cable_car subway aircraft wheelchair scooter drone" speed="4.66" length="2.12" shape="316.99,1168.95 318.83,1168.84 319.08,1168.96"/>
    </edge>
    <edge id=":11753290071_6" function="internal">
        <lane id=":11753290071_6_0" index="0" disallow="tram rail_urban rail rail_electric rail_fast ship container cable_car subway aircraft wheelchair scooter drone" speed="4.66" length="3.91" shape="319.08,1168.96 319.88,1169.36 320.14,1170.50 319.60,1172.27"/>
    </edge>
    <edge id=":12447084683_0" function="internal">
        <lane id=":12447084683_0_0" index="0" disallow="tram rail_urban rail rail_electric rail_fast ship container cable_car subway aircraft wheelchair scooter drone" speed="27.78" length="5.76" shape="931.47,686.33 930.32,687.53 929.81,688.63 929.31,689.73 928.17,690.95"/>
        <lane id=":12447084683_0_1" index="1" disallow="tram rail_urban rail rail_electric rail_fast ship container cable_car subway aircraft wheelchair scooter drone" speed="27.78" length="5.76" shape="931.47,686.33 930.01,687.14 928.82,687.38 927.63,687.61 926.19,688.45"/>
    </edge>
    <edge id=":12447084685_0" function="internal">
        <lane id=":12447084685_0_0" index="0" disallow="tram rail_urban rail rail_electric rail_fast ship container cable_car subway aircraft wheelchair scooter drone" speed="27.78" length="6.81" shape="922.28,685.12 923.66,683.68 924.32,682.44 924.98,681.18 926.35,679.73"/>
    </edge>
    <edge id=":12503912131_0" function="internal">
        <lane id=":12503912131_0_0" index="0" disallow="tram rail_urban rail rail_electric rail_fast ship container cable_car subway aircraft wheelchair scooter drone" speed="27.78" length="15.44" shape="305.38,1187.69 300.62,1189.11 297.03,1190.31 294.07,1191.67 291.22,1193.57"/>
    </edge>
    <edge id=":12503912131_1" function="internal">
        <lane id=":12503912131_1_0" index="0" disallow="tram rail_urban rail rail_electric rail_fast ship container cable_car subway aircraft wheelchair scooter drone" speed="5.27" length="3.93" shape="304.45,1184.63 301.61,1185.15 300.64,1184.78"/>
    </edge>
    <edge id=":12503912131_5" function="internal">
        <lane id=":12503912131_5_0" index="0" disallow="tram rail_urban rail rail_electric rail_fast ship container cable_car subway aircraft wheelchair scooter drone" speed="5.27" length="5.17" shape="300.64,1184.78 300.14,1184.60 300.04,1182.96 301.32,1180.25"/>
    </edge>
    <edge id=":12503912131_2" function="internal">
        <lane id=":12503912131_2_0" index="0" disallow="tram rail_urban rail rail_electric rail_fast ship container cable_car subway aircraft wheelchair scooter drone" speed="27.78" length="16.01" shape="289.26,1191.04 291.82,1188.74 293.89,1186.17 295.98,1182.92 298.58,1178.59"/>
        <lane id=":12503912131_2_1" index="1" disallow="tram rail_urban rail rail_electric rail_fast ship container cable_car subway aircraft wheelchair scooter drone" speed="27.78" length="16.01" shape="289.26,1191.04 292.22,1189.04 295.20,1187.09 298.22,1184.43 301.32,1180.25"/>
    </edge>
    <edge id=":12503912131_4" function="internal">
        <lane id=":12503912131_4_0" index="0" disallow="tram rail_urban rail rail_electric rail_fast ship container cable_car subway aircraft wheelchair scooter drone" speed="3.65" length="1.44" shape="289.26,1191.04 290.70,1190.94"/>
    </edge>
    <edge id=":12503912131_6" function="internal">
        <lane id=":12503912131_6_0" index="0" disallow="tram rail_urban rail rail_electric rail_fast ship container cable_car subway aircraft wheelchair scooter drone" speed="3.65" length="3.23" shape="290.70,1190.94 291.50,1191.33 291.68,1192.20 291.22,1193.57"/>
    </edge>
    <edge id=":12503912132_0" function="internal">
        <lane id=":12503912132_0_0" index="0" disallow="tram rail_urban rail rail_electric rail_fast ship container cable_car subway aircraft wheelchair scooter drone" speed="7.47" length="0.63" shape="306.40,1187.04 306.17,1187.24 306.02,1187.40 305.85,1187.52 305.57,1187.63"/>
        <lane id=":12503912132_0_1" index="1" disallow="tram rail_urban rail rail_electric rail_fast ship container cable_car subway aircraft wheelchair scooter drone" speed="27.78" length="0.63" shape="304.43,1184.52 304.64,1184.57"/>
    </edge>
    <edge id=":12506339688_0" function="internal">
        <lane id=":12506339688_0_0" index="0" disallow="tram rail_urban rail rail_electric rail_fast ship container cable_car subway aircraft wheelchair scooter drone" speed="27.78" length="0.29" shape="773.22,812.24 773.00,812.41"/>
        <lane id=":12506339688_0_1" index="1" disallow="tram rail_urban rail rail_electric rail_fast ship container cable_car subway aircraft wheelchair scooter drone" speed="27.78" length="0.29" shape="771.27,809.70 771.02,809.89"/>
    </edge>
    <edge id=":12609121278_0" function="internal">
        <lane id=":12609121278_0_0" index="0" disallow="tram rail_urban rail rail_electric rail_fast ship container cable_car subway aircraft wheelchair scooter drone" speed="27.78" length="9.40" shape="1151.66,902.45 1158.16,909.24"/>
        <lane id=":12609121278_0_1" index="1" disallow="tram rail_urban rail rail_electric rail_fast ship container cable_car subway aircraft wheelchair scooter drone" speed="27.78" length="9.40" shape="1149.35,904.66 1155.84,911.45"/>
        <lane id=":12609121278_0_2" index="2" disallow="tram rail_urban rail rail_electric rail_fast ship container cable_car subway aircraft wheelchair scooter drone" speed="27.78" length="9.40" shape="1147.04,906.87 1153.53,913.67"/>
    </edge>
    <edge id=":12609121278_3" function="internal">
        <lane id=":12609121278_3_0" index="0" allow="pedestrian delivery bicycle" speed="6.07" length="7.78" shape="1147.04,906.87 1148.80,909.00 1149.74,910.83 1149.84,912.36 1149.10,913.59"/>
    </edge>
    <edge id=":12609121278_4" function="internal">
        <lane id=":12609121278_4_0" index="0" allow="pedestrian delivery bicycle" speed="6.89" length="10.16" shape="1146.92,911.25 1149.20,909.65 1151.45,909.14 1153.67,909.75 1155.84,911.45"/>
        <lane id=":12609121278_4_1" index="1" allow="pedestrian delivery bicycle" speed="6.11" length="7.77" shape="1146.92,911.25 1148.18,910.60 1149.71,910.79 1151.49,911.81 1153.53,913.67"/>
    </edge>
    <edge id=":12609121278_6" function="internal">
        <lane id=":12609121278_6_0" index="0" allow="pedestrian delivery bicycle" speed="3.65" length="4.67" shape="1146.92,911.25 1148.34,911.02 1149.18,911.33 1149.43,912.18 1149.10,913.59"/>
    </edge>
    <edge id=":12609121279_0" function="internal">
        <lane id=":12609121279_0_0" index="0" disallow="tram rail_urban rail rail_electric rail_fast ship container cable_car subway aircraft wheelchair scooter drone" speed="13.89" length="9.40" shape="1146.42,920.33 1140.06,913.41"/>
    </edge>
    <edge id=":12609121279_1" function="internal">
        <lane id=":12609121279_1_0" index="0" allow="pedestrian delivery bicycle" speed="6.11" length="7.77" shape="1146.42,920.33 1144.70,918.17 1143.80,916.33 1143.71,914.79 1144.44,913.57"/>
    </edge>
    <edge id=":12609121279_2" function="internal">
        <lane id=":12609121279_2_0" index="0" allow="pedestrian delivery bicycle" speed="6.07" length="7.78" shape="1146.63,915.91 1145.36,916.56 1143.84,916.36 1142.07,915.31 1140.06,913.41"/>
    </edge>
    <edge id=":12609121279_3" function="internal">
        <lane id=":12609121279_3_0" index="0" allow="pedestrian delivery bicycle" speed="3.65" length="4.67" shape="1146.63,915.91 1145.21,916.14 1144.37,915.83 1144.11,914.98 1144.44,913.57"/>
    </edge>
    <edge id=":12609121287_0" function="internal">
        <lane id=":12609121287_0_0" index="0" disallow="tram rail_urban rail rail_electric rail_fast ship container cable_car subway aircraft wheelchair scooter drone" speed="13.89" length="0.30" shape="1129.50,901.92 1129.30,901.70"/>
    </edge>
    <edge id=":12617378673_0" function="internal">
        <lane id=":12617378673_0_0" index="0" disallow="tram rail_urban rail rail_electric rail_fast ship container cable_car subway aircraft wheelchair scooter drone" speed="27.78" length="0.30" shape="1265.79,414.63 1265.56,414.82"/>
    </edge>
    <edge id=":12617378673_1" function="internal">
        <lane id=":12617378673_1_0" index="0" disallow="tram rail_urban rail rail_electric rail_fast ship container cable_car subway aircraft wheelchair scooter drone" speed="27.78" length="0.30" shape="1263.55,412.33 1263.78,412.14"/>
    </edge>
    <edge id=":12617378678_0" function="internal">
        <lane id=":12617378678_0_0" index="0" disallow="tram rail_urban rail rail_electric rail_fast ship container cable_car subway aircraft wheelchair scooter drone" speed="27.78" length="0.30" shape="1223.61,448.64 1223.38,448.83"/>
    </edge>
    <edge id=":12617378678_1" function="internal">
        <lane id=":12617378678_1_0" index="0" disallow="tram rail_urban rail rail_electric rail_fast ship container cable_car subway aircraft wheelchair scooter drone" speed="27.78" length="0.30" shape="1221.37,446.34 1221.60,446.15"/>
    </edge>
    <edge id=":12617378680_0" function="internal">
        <lane id=":12617378680_0_0" index="0" disallow="tram rail_urban rail rail_electric rail_fast ship container cable_car subway aircraft wheelchair scooter drone" speed="27.78" length="0.30" shape="1248.49,428.59 1248.26,428.78"/>
    </edge>
    <edge id=":12617378680_1" function="internal">
        <lane id=":12617378680_1_0" index="0" disallow="tram rail_urban rail rail_electric rail_fast ship container cable_car subway aircraft wheelchair scooter drone" speed="27.78" length="0.30" shape="1246.25,426.29 1246.48,426.10"/>
    </edge>
    <edge id=":12989990969_0" function="internal">
        <lane id=":12989990969_0_0" index="0" disallow="tram rail_urban rail rail_electric rail_fast ship container cable_car subway aircraft wheelchair scooter drone" speed="27.78" length="0.30" shape="707.29,863.98 707.05,864.17"/>
        <lane id=":12989990969_0_1" index="1" disallow="tram rail_urban rail rail_electric rail_fast ship container cable_car subway aircraft wheelchair scooter drone" speed="27.78" length="0.30" shape="705.28,861.49 705.05,861.67"/>
    </edge>
    <edge id=":12989990970_0" function="internal">
        <lane id=":12989990970_0_0" index="0" disallow="tram rail_urban rail rail_electric rail_fast ship container cable_car subway aircraft wheelchair scooter drone" speed="27.78" length="0.30" shape="666.95,896.27 666.73,896.44"/>
        <lane id=":12989990970_0_1" index="1" disallow="tram rail_urban rail rail_electric rail_fast ship container cable_car subway aircraft wheelchair scooter drone" speed="27.78" length="0.30" shape="664.95,893.77 664.70,893.96"/>
    </edge>
    <edge id=":13026648751_0" function="internal">
        <lane id=":13026648751_0_0" index="0" disallow="tram rail_urban rail rail_electric rail_fast ship container cable_car subway aircraft wheelchair scooter drone" speed="27.78" length="1.86" shape="642.31,913.26 643.79,912.14"/>
    </edge>
    <edge id=":13026648751_1" function="internal">
        <lane id=":13026648751_1_0" index="0" disallow="tram rail_urban rail rail_electric rail_fast ship container cable_car subway aircraft wheelchair scooter drone" speed="27.78" length="1.82" shape="641.82,909.62 640.37,910.72"/>
    </edge>
    <edge id=":13031051824_0" function="internal">
        <lane id=":13031051824_0_0" index="0" disallow="tram rail_urban rail rail_electric rail_fast ship container cable_car subway aircraft wheelchair scooter drone" speed="22.22" length="0.10" shape="768.11,629.59 768.11,629.59"/>
    </edge>
    <edge id=":13031051824_1" function="internal">
        <lane id=":13031051824_1_0" index="0" disallow="tram rail_urban rail rail_electric rail_fast ship container cable_car subway aircraft wheelchair scooter drone" speed="22.22" length="0.10" shape="765.97,627.21 765.97,627.21"/>
    </edge>
    <edge id=":13075564399_0" function="internal">
        <lane id=":13075564399_0_0" index="0" disallow="tram rail_urban rail rail_electric rail_fast ship container cable_car subway aircraft wheelchair scooter drone" speed="27.78" length="9.49" shape="843.93,757.70 836.43,763.55"/>
        <lane id=":13075564399_0_1" index="1" disallow="tram rail_urban rail rail_electric rail_fast ship container cable_car subway aircraft wheelchair scooter drone" speed="27.78" length="9.49" shape="841.94,755.19 834.48,761.02"/>
    </edge>
    <edge id=":13075564399_2" function="internal">
        <lane id=":13075564399_2_0" index="0" disallow="tram rail_urban rail rail_electric rail_fast ship container cable_car subway aircraft wheelchair scooter drone" speed="6.01" length="6.90" shape="841.94,755.19 839.76,756.79 838.02,757.75 836.74,758.08 835.91,757.79"/>
    </edge>
    <edge id=":13075564399_3" function="internal">
        <lane id=":13075564399_3_0" index="0" disallow="tram rail_urban rail rail_electric rail_fast ship container cable_car subway aircraft wheelchair scooter drone" speed="5.64" length="7.16" shape="838.17,755.53 838.50,756.43 837.99,757.65 836.65,759.18 834.48,761.02"/>
    </edge>
    <edge id=":13075564399_4" function="internal">
        <lane id=":13075564399_4_0" index="0" disallow="tram rail_urban rail rail_electric rail_fast ship container cable_car subway aircraft wheelchair scooter drone" speed="3.65" length="4.67" shape="838.17,755.53 838.45,756.95 838.17,757.79 837.32,758.08 835.91,757.79"/>
    </edge>
    <edge id=":13075564400_0" function="internal">
        <lane id=":13075564400_0_0" index="0" disallow="tram rail_urban rail rail_electric rail_fast ship container cable_car subway aircraft wheelchair scooter drone" speed="27.78" length="12.45" shape="738.53,836.95 730.25,827.64"/>
        <lane id=":13075564400_0_1" index="1" disallow="tram rail_urban rail rail_electric rail_fast ship container cable_car subway aircraft wheelchair scooter drone" speed="27.78" length="12.45" shape="740.92,834.82 732.65,825.52"/>
        <lane id=":13075564400_0_2" index="2" disallow="tram rail_urban rail rail_electric rail_fast ship container cable_car subway aircraft wheelchair scooter drone" speed="27.78" length="12.45" shape="743.31,832.69 735.04,823.39"/>
    </edge>
    <edge id=":13075564400_3" function="internal">
        <lane id=":13075564400_3_0" index="0" disallow="tram rail_urban rail rail_electric rail_fast ship container cable_car subway aircraft wheelchair scooter drone" speed="5.77" length="7.18" shape="743.31,832.69 742.65,831.42 742.82,830.01 743.82,828.46 745.63,826.76"/>
    </edge>
    <edge id=":13075564400_4" function="internal">
        <lane id=":13075564400_4_0" index="0" disallow="tram rail_urban rail rail_electric rail_fast ship container cable_car subway aircraft wheelchair scooter drone" speed="6.39" length="9.04" shape="729.57,835.43 731.29,833.62 731.97,831.72 731.63,829.72 730.25,827.64"/>
    </edge>
    <edge id=":13075564400_5" function="internal">
        <lane id=":13075564400_5_0" index="0" disallow="tram rail_urban rail rail_electric rail_fast ship container cable_car subway aircraft wheelchair scooter drone" speed="27.78" length="17.97" shape="729.57,835.43 743.64,824.25"/>
        <lane id=":13075564400_5_1" index="1" disallow="tram rail_urban rail rail_electric rail_fast ship container cable_car subway aircraft wheelchair scooter drone" speed="27.78" length="17.97" shape="731.56,837.94 745.63,826.76"/>
    </edge>
    <edge id=":13075589601_0" function="internal">
        <lane id=":13075589601_0_0" index="0" disallow="tram rail_urban rail rail_electric rail_fast ship container cable_car subway aircraft wheelchair scooter drone" speed="6.69" length="9.13" shape="928.18,670.88 930.14,672.46 932.14,673.10 934.19,672.78 936.27,671.52"/>
    </edge>
    <edge id=":13075589601_1" function="internal">
        <lane id=":13075589601_1_0" index="0" disallow="tram rail_urban rail rail_electric rail_fast ship container cable_car subway aircraft wheelchair scooter drone" speed="27.78" length="8.56" shape="928.18,670.88 934.05,677.10"/>
        <lane id=":13075589601_1_1" index="1" disallow="tram rail_urban rail rail_electric rail_fast ship container cable_car subway aircraft wheelchair scooter drone" speed="27.78" length="8.56" shape="925.85,673.07 931.72,679.30"/>
    </edge>
    <edge id=":13075589601_3" function="internal">
        <lane id=":13075589601_3_0" index="0" disallow="tram rail_urban rail rail_electric rail_fast ship container cable_car subway aircraft wheelchair scooter drone" speed="27.78" length="12.68" shape="926.50,679.60 936.27,671.52"/>
    </edge>
    <edge id=":13075589601_4" function="internal">
        <lane id=":13075589601_4_0" index="0" disallow="tram rail_urban rail rail_electric rail_fast ship container cable_car subway aircraft wheelchair scooter drone" speed="5.50" length="5.86" shape="926.50,679.60 927.99,678.62 929.35,678.25 930.60,678.47 931.72,679.30"/>
    </edge>
    <edge id=":13075589602_0" function="internal">
        <lane id=":13075589602_0_0" index="0" disallow="tram rail_urban rail rail_electric rail_fast ship container cable_car subway aircraft wheelchair scooter drone" speed="6.29" length="9.04" shape="943.89,676.78 942.14,678.58 941.45,680.47 941.84,682.44 943.31,684.49"/>
    </edge>
    <edge id=":13075589602_1" function="internal">
        <lane id=":13075589602_1_0" index="0" disallow="tram rail_urban rail rail_electric rail_fast ship container cable_car subway aircraft wheelchair scooter drone" speed="27.78" length="15.47" shape="943.89,676.78 931.63,686.21"/>
    </edge>
    <edge id=":13075589602_2" function="internal">
        <lane id=":13075589602_2_0" index="0" disallow="tram rail_urban rail rail_electric rail_fast ship container cable_car subway aircraft wheelchair scooter drone" speed="27.78" length="9.19" shape="936.96,677.84 943.31,684.49"/>
        <lane id=":13075589602_2_1" index="1" disallow="tram rail_urban rail rail_electric rail_fast ship container cable_car subway aircraft wheelchair scooter drone" speed="27.78" length="9.19" shape="934.64,680.05 940.99,686.70"/>
        <lane id=":13075589602_2_2" index="2" disallow="tram rail_urban rail rail_electric rail_fast ship container cable_car subway aircraft wheelchair scooter drone" speed="27.78" length="9.19" shape="932.33,682.26 938.68,688.91"/>
    </edge>
    <edge id=":13075589602_5" function="internal">
        <lane id=":13075589602_5_0" index="0" disallow="tram rail_urban rail rail_electric rail_fast ship container cable_car subway aircraft wheelchair scooter drone" speed="4.75" length="4.68" shape="932.33,682.26 932.99,683.25 933.09,684.23 932.64,685.22 931.63,686.21"/>
    </edge>
    <edge id=":13075589603_0" function="internal">
        <lane id=":13075589603_0_0" index="0" disallow="tram rail_urban rail rail_electric rail_fast ship container cable_car subway aircraft wheelchair scooter drone" speed="6.72" length="9.35" shape="743.66,842.89 741.72,841.19 739.70,840.48 737.60,840.75 735.42,842.01"/>
    </edge>
    <edge id=":13075589603_1" function="internal">