<?xml version="1.0" encoding="UTF-8"?>

<!-- generated on 2026-01-27 00:07:38 by Eclipse SUMO netedit Version 1.24.0
<neteditConfiguration xmlns:xsi="http://www.w3.org/2001/XMLSchema-instance" xsi:noNamespaceSchemaLocation="http://sumo.dlr.de/xsd/neteditConfiguration.xsd">

    <input>
        <sumo-net-file value="D:\AfterGradEx\de_traffic_control\multi-tl-map_1.net.xml"/>
    </input>

    <output>
        <output-file value="D:\AfterGradEx\de_traffic_control\multi-tl-map_1.net.xml"/>
    </output>

    <processing>
        <geometry.min-radius.fix.railways value="false"/>
        <geometry.avoid-overlap value="false"/>
        <geometry.max-grade.fix value="false"/>
        <offset.disable-normalization value="true"/>
        <lefthand value="0"/>
    </processing>

    <junctions>
        <no-turnarounds value="true"/>
        <junctions.corner-detail value="5"/>
        <junctions.limit-turn-speed value="5.50"/>
        <rectangular-lane-cut value="0"/>
    </junctions>

    <pedestrian>
        <walkingareas value="0"/>
    </pedestrian>

</neteditConfiguration>
-->

<net version="1.20" junctionCornerDetail="5" limitTurnSpeed="5.50" avoidOverlap="0" xmlns:xsi="http://www.w3.org/2001/XMLSchema-instance" xsi:noNamespaceSchemaLocation="http://sumo.dlr.de/xsd/net_file.xsd">

    <location netOffset="-683948.68,-1191702.58" convBoundary="230.16,366.67,1719.90,1773.59" origBoundary="106.682391,10.775855,106.698116,10.791831" projParameter="+proj=utm +zone=48 +ellps=WGS84 +datum=WGS84 +units=m +no_defs"/>

    <type id="highway.primary" priority="12" numLanes="2" speed="27.78" disallow="tram rail_urban rail rail_electric rail_fast ship container cable_car subway aircraft wheelchair scooter drone" oneway="0"/>
    <type id="highway.primary_link" priority="7" numLanes="1" speed="22.22" disallow="tram rail_urban rail rail_electric rail_fast ship container cable_car subway aircraft wheelchair scooter drone" oneway="0"/>
    <type id="highway.residential" priority="3" numLanes="1" speed="13.89" disallow="tram rail_urban rail rail_electric rail_fast ship container cable_car subway aircraft wheelchair scooter drone" oneway="0"/>
    <type id="highway.secondary" priority="11" numLanes="1" speed="27.78" disallow="tram rail_urban rail rail_electric rail_fast ship container cable_car subway aircraft wheelchair scooter drone" oneway="0"/>
    <type id="highway.service" priority="1" numLanes="1" speed="5.56" allow="pedestrian delivery bicycle" oneway="0"/>
    <type id="highway.tertiary" priority="10" numLanes="1" speed="22.22" disallow="tram rail_urban rail rail_electric rail_fast ship container cable_car subway aircraft wheelchair scooter drone" oneway="0"/>

    <edge id=":10836565770_0" function="internal">
        <lane id=":10836565770_0_0" index="0" disallow="tram rail_urban rail rail_electric rail_fast ship container cable_car subway aircraft wheelchair scooter drone" speed="3.65" length="4.67" shape="1440.89,1645.13 1440.71,1646.56 1440.18,1647.28 1439.28,1647.28 1438.03,1646.57"/>
    </edge>
    <edge id=":11333010757_0" function="internal">
        <lane id=":11333010757_0_0" index="0" disallow="tram rail_urban rail rail_electric rail_fast ship container cable_car subway aircraft wheelchair scooter drone" speed="3.65" length="4.67" shape="1490.60,1649.15 1489.16,1649.23 1488.36,1648.83 1488.20,1647.96 1488.68,1646.59"/>
    </edge>
    <edge id=":11364145943_0" function="internal">
        <lane id=":11364145943_0_0" index="0" disallow="tram rail_urban rail rail_electric rail_fast ship container cable_car subway aircraft wheelchair scooter drone" speed="27.78" length="6.69" shape="1477.46,1429.45 1482.08,1434.28"/>
        <lane id=":11364145943_0_1" index="1" disallow="tram rail_urban rail rail_electric rail_fast ship container cable_car subway aircraft wheelchair scooter drone" speed="27.78" length="6.69" shape="1475.15,1431.66 1479.77,1436.49"/>
        <lane id=":11364145943_0_2" index="2" disallow="tram rail_urban rail rail_electric rail_fast ship container cable_car subway aircraft wheelchair scooter drone" speed="27.78" length="6.69" shape="1472.84,1433.87 1477.45,1438.70"/>
    </edge>
    <edge id=":11364145943_3" function="internal">
        <lane id=":11364145943_3_0" index="0" disallow="tram rail_urban rail rail_electric rail_fast ship container cable_car subway aircraft wheelchair scooter drone" speed="7.24" length="7.88" shape="1471.28,1438.54 1474.40,1437.02 1476.85,1436.17 1478.64,1436.00 1479.77,1436.49"/>
        <lane id=":11364145943_3_1" index="1" disallow="tram rail_urban rail rail_electric rail_fast ship container cable_car subway aircraft wheelchair scooter drone" speed="6.30" length="7.88" shape="1471.28,1438.54 1473.16,1437.75 1474.81,1437.51 1476.24,1437.83 1477.45,1438.70"/>
    </edge>
    <edge id=":12609121278_0" function="internal">
        <lane id=":12609121278_0_0" index="0" disallow="tram rail_urban rail rail_electric rail_fast ship container cable_car subway aircraft wheelchair scooter drone" speed="27.78" length="9.40" shape="1453.59,1404.48 1460.09,1411.27"/>
        <lane id=":12609121278_0_1" index="1" disallow="tram rail_urban rail rail_electric rail_fast ship container cable_car subway aircraft wheelchair scooter drone" speed="27.78" length="9.40" shape="1451.28,1406.69 1457.78,1413.49"/>
        <lane id=":12609121278_0_2" index="2" disallow="tram rail_urban rail rail_electric rail_fast ship container cable_car subway aircraft wheelchair scooter drone" speed="27.78" length="9.40" shape="1448.97,1408.90 1455.46,1415.70"/>
    </edge>
    <edge id=":12609121278_3" function="internal">
        <lane id=":12609121278_3_0" index="0" allow="pedestrian delivery bicycle" speed="6.07" length="7.78" shape="1448.97,1408.90 1450.73,1411.03 1451.67,1412.86 1451.77,1414.39 1451.04,1415.62"/>
    </edge>
    <edge id=":12609121278_4" function="internal">
        <lane id=":12609121278_4_0" index="0" allow="pedestrian delivery bicycle" speed="6.89" length="10.16" shape="1448.85,1413.29 1451.13,1411.68 1453.38,1411.17 1455.60,1411.78 1457.78,1413.49"/>
        <lane id=":12609121278_4_1" index="1" allow="pedestrian delivery bicycle" speed="6.11" length="7.77" shape="1448.85,1413.29 1450.11,1412.64 1451.64,1412.82 1453.42,1413.84 1455.46,1415.70"/>
    </edge>
    <edge id=":12609121278_6" function="internal">
        <lane id=":12609121278_6_0" index="0" allow="pedestrian delivery bicycle" speed="3.65" length="4.67" shape="1448.85,1413.29 1450.27,1413.05 1451.11,1413.36 1451.36,1414.21 1451.04,1415.62"/>
    </edge>
    <edge id=":12609121279_0" function="internal">
        <lane id=":12609121279_0_0" index="0" disallow="tram rail_urban rail rail_electric rail_fast ship container cable_car subway aircraft wheelchair scooter drone" speed="13.89" length="9.40" shape="1448.35,1422.37 1441.99,1415.45"/>
    </edge>
    <edge id=":12609121279_1" function="internal">
        <lane id=":12609121279_1_0" index="0" allow="pedestrian delivery bicycle" speed="6.11" length="7.77" shape="1448.35,1422.37 1446.63,1420.21 1445.73,1418.37 1445.64,1416.83 1446.37,1415.61"/>
    </edge>
    <edge id=":12609121279_2" function="internal">
        <lane id=":12609121279_2_0" index="0" allow="pedestrian delivery bicycle" speed="6.07" length="7.79" shape="1448.56,1417.94 1447.29,1418.59 1445.77,1418.40 1444.00,1417.35 1441.99,1415.45"/>
    </edge>
    <edge id=":12609121279_3" function="internal">
        <lane id=":12609121279_3_0" index="0" allow="pedestrian delivery bicycle" speed="3.65" length="4.67" shape="1448.56,1417.94 1447.14,1418.18 1446.30,1417.87 1446.04,1417.01 1446.37,1415.61"/>
    </edge>
    <edge id=":12609121287_0" function="internal">
        <lane id=":12609121287_0_0" index="0" disallow="tram rail_urban rail rail_electric rail_fast ship container cable_car subway aircraft wheelchair scooter drone" speed="13.89" length="0.30" shape="1431.43,1403.95 1431.23,1403.73"/>
    </edge>
    <edge id=":13026648751_0" function="internal">
        <lane id=":13026648751_0_0" index="0" disallow="tram rail_urban rail rail_electric rail_fast ship container cable_car subway aircraft wheelchair scooter drone" speed="27.78" length="1.87" shape="944.22,1415.29 945.72,1414.17"/>
    </edge>
    <edge id=":13026648751_1" function="internal">
        <lane id=":13026648751_1_0" index="0" disallow="tram rail_urban rail rail_electric rail_fast ship container cable_car subway aircraft wheelchair scooter drone" speed="27.78" length="1.82" shape="943.75,1411.64 942.30,1412.73"/>
    </edge>
    <edge id=":13156774609_0" function="internal">
        <lane id=":13156774609_0_0" index="0" disallow="tram rail_urban rail rail_electric rail_fast ship container cable_car subway aircraft wheelchair scooter drone" speed="27.78" length="0.10" shape="808.01,1523.71 808.03,1523.63"/>
    </edge>
    <edge id=":13156774609_1" function="internal">
        <lane id=":13156774609_1_0" index="0" disallow="tram rail_urban rail rail_electric rail_fast ship container cable_car subway aircraft wheelchair scooter drone" speed="27.78" length="0.10" shape="806.04,1521.21 805.98,1521.24"/>
    </edge>
    <edge id=":13156774610_0" function="internal">
        <lane id=":13156774610_0_0" index="0" disallow="tram rail_urban rail rail_electric rail_fast ship container cable_car subway aircraft wheelchair scooter drone" speed="27.78" length="14.48" shape="784.44,1542.14 773.11,1551.14"/>
    </edge>
    <edge id=":13156774610_1" function="internal">
        <lane id=":13156774610_1_0" index="0" disallow="tram rail_urban rail rail_electric rail_fast ship container cable_car subway aircraft wheelchair scooter drone" speed="7.76" length="4.14" shape="784.44,1542.14 780.86,1544.22"/>
    </edge>
    <edge id=":13156774610_2" function="internal">
        <lane id=":13156774610_2_0" index="0" disallow="tram rail_urban rail rail_electric rail_fast ship container cable_car subway aircraft wheelchair scooter drone" speed="3.65" length="1.44" shape="784.44,1542.14 783.01,1542.26"/>
    </edge>
    <edge id=":13156774610_9" function="internal">
        <lane id=":13156774610_9_0" index="0" disallow="tram rail_urban rail rail_electric rail_fast ship container cable_car subway aircraft wheelchair scooter drone" speed="7.76" length="10.65" shape="780.86,1544.22 777.62,1544.52 774.73,1543.04 772.18,1539.77"/>
    </edge>
    <edge id=":13156774610_10" function="internal">
        <lane id=":13156774610_10_0" index="0" disallow="tram rail_urban rail rail_electric rail_fast ship container cable_car subway aircraft wheelchair scooter drone" speed="3.65" length="3.23" shape="783.01,1542.26 782.20,1541.88 782.01,1541.00 782.46,1539.63"/>
    </edge>
    <edge id=":13156774610_3" function="internal">
        <lane id=":13156774610_3_0" index="0" disallow="tram rail_urban rail rail_electric rail_fast ship container cable_car subway aircraft wheelchair scooter drone" speed="6.21" length="9.05" shape="774.95,1538.18 776.51,1540.18 778.28,1541.09 780.27,1540.90 782.46,1539.63"/>
    </edge>
    <edge id=":13156774610_4" function="internal">
        <lane id=":13156774610_4_0" index="0" disallow="tram rail_urban rail rail_electric rail_fast ship container cable_car subway aircraft wheelchair scooter drone" speed="8.56" length="14.46" shape="774.95,1538.18 776.53,1541.95 776.75,1545.36 775.61,1548.42 773.11,1551.14"/>
    </edge>
    <edge id=":13156774610_5" function="internal">
        <lane id=":13156774610_5_0" index="0" disallow="tram rail_urban rail rail_electric rail_fast ship container cable_car subway aircraft wheelchair scooter drone" speed="3.65" length="4.67" shape="774.95,1538.18 774.85,1539.62 774.36,1540.37 773.47,1540.42 772.18,1539.77"/>
    </edge>
    <edge id=":13156774610_6" function="internal">
        <lane id=":13156774610_6_0" index="0" disallow="tram rail_urban rail rail_electric rail_fast ship container cable_car subway aircraft wheelchair scooter drone" speed="7.16" length="9.85" shape="771.12,1548.63 772.76,1546.82 773.49,1544.74 773.29,1542.39 772.18,1539.77"/>
    </edge>
    <edge id=":13156774610_7" function="internal">
        <lane id=":13156774610_7_0" index="0" disallow="tram rail_urban rail rail_electric rail_fast ship container cable_car subway aircraft wheelchair scooter drone" speed="27.78" length="14.47" shape="771.12,1548.63 782.46,1539.63"/>
    </edge>
    <edge id=":13156774610_8" function="internal">
        <lane id=":13156774610_8_0" index="0" disallow="tram rail_urban rail rail_electric rail_fast ship container cable_car subway aircraft wheelchair scooter drone" speed="3.65" length="1.44" shape="771.12,1548.63 772.56,1548.51"/>
    </edge>
    <edge id=":13156774610_11" function="internal">
        <lane id=":13156774610_11_0" index="0" disallow="tram rail_urban rail rail_electric rail_fast ship container cable_car subway aircraft wheelchair scooter drone" speed="3.65" length="3.23" shape="772.56,1548.51 773.37,1548.89 773.55,1549.77 773.11,1551.14"/>
    </edge>
    <edge id=":13156774612_0" function="internal">
        <lane id=":13156774612_0_0" index="0" disallow="tram rail_urban rail rail_electric rail_fast ship container cable_car subway aircraft wheelchair scooter drone" speed="27.78" length="0.86" shape="791.07,1536.57 790.74,1537.36"/>
    </edge>
    <edge id=":13156774612_1" function="internal">
        <lane id=":13156774612_1_0" index="0" disallow="tram rail_urban rail rail_electric rail_fast ship container cable_car subway aircraft wheelchair scooter drone" speed="3.97" length="3.76" shape="791.07,1536.57 789.94,1536.66 789.26,1536.34 789.01,1535.63 789.21,1534.52"/>
    </edge>
    <edge id=":13156774612_2" function="internal">
        <lane id=":13156774612_2_0" index="0" disallow="tram rail_urban rail rail_electric rail_fast ship container cable_car subway aircraft wheelchair scooter drone" speed="27.78" length="0.50" shape="788.81,1534.81 789.21,1534.52"/>
    </edge>
    <edge id=":13156774612_3" function="internal">
        <lane id=":13156774612_3_0" index="0" disallow="tram rail_urban rail rail_electric rail_fast ship container cable_car subway aircraft wheelchair scooter drone" speed="3.65" length="2.34" shape="788.81,1534.81 790.25,1534.73 791.05,1535.12"/>
    </edge>
    <edge id=":13156774612_4" function="internal">
        <lane id=":13156774612_4_0" index="0" disallow="tram rail_urban rail rail_electric rail_fast ship container cable_car subway aircraft wheelchair scooter drone" speed="3.65" length="2.34" shape="791.05,1535.12 791.21,1536.00 790.74,1537.36"/>
    </edge>
    <edge id=":2036141666_0" function="internal">
        <lane id=":2036141666_0_0" index="0" disallow="tram rail_urban rail rail_electric rail_fast ship container cable_car subway aircraft wheelchair scooter drone" speed="8.82" length="8.74" shape="731.66,1037.12 729.37,1036.86 727.24,1037.10 725.27,1037.83 723.45,1039.06"/>
    </edge>
    <edge id=":2036141666_1" function="internal">
        <lane id=":2036141666_1_0" index="0" disallow="tram rail_urban rail rail_electric rail_fast ship container cable_car subway aircraft wheelchair scooter drone" speed="22.23" length="9.29" shape="730.39,1032.62 723.45,1039.06"/>
        <lane id=":2036141666_1_1" index="1" disallow="tram rail_urban rail rail_electric rail_fast ship container cable_car subway aircraft wheelchair scooter drone" speed="22.23" length="9.29" shape="728.18,1030.31 721.38,1036.63"/>
        <lane id=":2036141666_1_2" index="2" disallow="tram rail_urban rail rail_electric rail_fast ship container cable_car subway aircraft wheelchair scooter drone" speed="22.23" length="9.29" shape="725.98,1027.99 719.30,1034.19"/>
    </edge>
    <edge id=":2036141676_0" function="internal">
        <lane id=":2036141676_0_0" index="0" disallow="tram rail_urban rail rail_electric rail_fast ship container cable_car subway aircraft wheelchair scooter drone" speed="8.31" length="7.41" shape="709.12,1023.04 709.98,1021.92 710.56,1020.38 710.85,1018.43 710.85,1016.05"/>
    </edge>
    <edge id=":2036141676_1" function="internal">
        <lane id=":2036141676_1_0" index="0" disallow="tram rail_urban rail rail_electric rail_fast ship container cable_car subway aircraft wheelchair scooter drone" speed="22.23" length="7.68" shape="709.12,1023.04 714.80,1017.89"/>
        <lane id=":2036141676_1_1" index="1" disallow="tram rail_urban rail rail_electric rail_fast ship container cable_car subway aircraft wheelchair scooter drone" speed="22.23" length="7.68" shape="711.26,1025.42 716.95,1020.26"/>
        <lane id=":2036141676_1_2" index="2" disallow="tram rail_urban rail rail_electric rail_fast ship container cable_car subway aircraft wheelchair scooter drone" speed="22.23" length="7.68" shape="713.40,1027.80 719.10,1022.64"/>
    </edge>
    <edge id=":2036141706_0" function="internal">
        <lane id=":2036141706_0_0" index="0" disallow="tram rail_urban rail rail_electric rail_fast ship container cable_car subway aircraft wheelchair scooter drone" speed="25.00" length="21.09" shape="777.84,1065.65 772.56,1061.14 767.75,1058.34 763.56,1056.38 760.15,1054.38"/>
    </edge>
    <edge id=":2036141706_1" function="internal">
        <lane id=":2036141706_1_0" index="0" disallow="tram rail_urban rail rail_electric rail_fast ship container cable_car subway aircraft wheelchair scooter drone" speed="27.78" length="21.38" shape="777.84,1065.65 761.88,1051.42"/>
        <lane id=":2036141706_1_1" index="1" disallow="tram rail_urban rail rail_electric rail_fast ship container cable_car subway aircraft wheelchair scooter drone" speed="27.78" length="21.38" shape="780.15,1063.42 764.18,1049.20"/>
        <lane id=":2036141706_1_2" index="2" disallow="tram rail_urban rail rail_electric rail_fast ship container cable_car subway aircraft wheelchair scooter drone" speed="27.78" length="21.38" shape="782.45,1061.20 766.48,1046.98"/>
        <lane id=":2036141706_1_3" index="3" disallow="tram rail_urban rail rail_electric rail_fast ship container cable_car subway aircraft wheelchair scooter drone" speed="27.78" length="21.38" shape="782.45,1061.20 768.78,1044.75"/>
    </edge>
    <edge id=":2036141724_0" function="internal">
        <lane id=":2036141724_0_0" index="0" disallow="tram rail_urban rail rail_electric rail_fast ship container cable_car subway aircraft wheelchair scooter drone" speed="22.22" length="8.72" shape="819.56,925.16 813.40,918.99"/>
    </edge>
    <edge id=":2036141724_1" function="internal">
        <lane id=":2036141724_1_0" index="0" disallow="tram rail_urban rail rail_electric rail_fast ship container cable_car subway aircraft wheelchair scooter drone" speed="6.72" length="10.01" shape="819.56,925.16 819.02,923.83 819.56,922.02 821.19,919.73 823.91,916.97"/>
    </edge>
    <edge id=":2036141724_2" function="internal">
        <lane id=":2036141724_2_0" index="0" disallow="tram rail_urban rail rail_electric rail_fast ship container cable_car subway aircraft wheelchair scooter drone" speed="3.65" length="4.67" shape="819.56,925.16 819.28,923.74 819.56,922.89 820.41,922.61 821.83,922.89"/>
    </edge>
    <edge id=":2036141724_3" function="internal">
        <lane id=":2036141724_3_0" index="0" disallow="tram rail_urban rail rail_electric rail_fast ship container cable_car subway aircraft wheelchair scooter drone" speed="6.69" length="9.32" shape="815.66,916.73 817.71,918.27 819.76,918.83 821.83,918.39 823.91,916.97"/>
    </edge>
    <edge id=":2036141724_4" function="internal">
        <lane id=":2036141724_4_0" index="0" disallow="tram rail_urban rail rail_electric rail_fast ship container cable_car subway aircraft wheelchair scooter drone" speed="22.22" length="8.72" shape="815.66,916.73 821.83,922.89"/>
    </edge>
    <edge id=":2036141724_5" function="internal">
        <lane id=":2036141724_5_0" index="0" disallow="tram rail_urban rail rail_electric rail_fast ship container cable_car subway aircraft wheelchair scooter drone" speed="3.65" length="4.67" shape="815.66,916.73 815.94,918.14 815.66,918.99 814.81,919.27 813.40,918.99"/>
    </edge>
    <edge id=":2036141724_6" function="internal">
        <lane id=":2036141724_6_0" index="0" disallow="tram rail_urban rail rail_electric rail_fast ship container cable_car subway aircraft wheelchair scooter drone" speed="6.44" length="9.03" shape="813.27,926.85 814.83,924.91 815.36,922.95 814.89,920.98 813.40,918.99"/>
    </edge>
    <edge id=":2036141724_7" function="internal">
        <lane id=":2036141724_7_0" index="0" disallow="tram rail_urban rail rail_electric rail_fast ship container cable_car subway aircraft wheelchair scooter drone" speed="27.78" length="14.52" shape="813.27,926.85 823.91,916.97"/>
    </edge>
    <edge id=":2036141724_8" function="internal">
        <lane id=":2036141724_8_0" index="0" disallow="tram rail_urban rail rail_electric rail_fast ship container cable_car subway aircraft wheelchair scooter drone" speed="6.91" length="10.08" shape="813.27,926.85 816.23,924.33 818.64,922.83 820.51,922.35 821.83,922.89"/>
    </edge>
    <edge id=":2036141730_0" function="internal">
        <lane id=":2036141730_0_0" index="0" disallow="tram rail_urban rail rail_electric rail_fast ship container cable_car subway aircraft wheelchair scooter drone" speed="5.91" length="7.11" shape="821.97,923.04 823.16,923.74 824.60,923.70 826.26,922.91 828.17,921.38"/>
    </edge>
    <edge id=":2036141730_1" function="internal">
        <lane id=":2036141730_1_0" index="0" disallow="tram rail_urban rail rail_electric rail_fast ship container cable_car subway aircraft wheelchair scooter drone" speed="3.65" length="4.67" shape="821.97,923.04 822.25,924.45 821.97,925.30 821.12,925.58 819.71,925.30"/>
    </edge>
    <edge id=":2036141730_2" function="internal">
        <lane id=":2036141730_2_0" index="0" disallow="tram rail_urban rail rail_electric rail_fast ship container cable_car subway aircraft wheelchair scooter drone" speed="5.75" length="7.01" shape="817.65,931.24 819.33,929.42 820.23,927.82 820.36,926.45 819.71,925.30"/>
    </edge>
    <edge id=":2036141730_3" function="internal">
        <lane id=":2036141730_3_0" index="0" disallow="tram rail_urban rail rail_electric rail_fast ship container cable_car subway aircraft wheelchair scooter drone" speed="27.78" length="14.42" shape="817.65,931.24 828.17,921.38"/>
        <lane id=":2036141730_3_1" index="1" disallow="tram rail_urban rail rail_electric rail_fast ship container cable_car subway aircraft wheelchair scooter drone" speed="27.78" length="14.42" shape="819.84,933.58 830.36,923.71"/>
    </edge>
    <edge id=":2036141742_0" function="internal">
        <lane id=":2036141742_0_0" index="0" disallow="tram rail_urban rail rail_electric rail_fast ship container cable_car subway aircraft wheelchair scooter drone" speed="10.36" length="7.98" shape="689.13,979.38 689.08,977.00 689.05,975.27 688.59,973.74 687.21,971.95"/>
    </edge>
    <edge id=":2036141742_1" function="internal">
        <lane id=":2036141742_1_0" index="0" disallow="tram rail_urban rail rail_electric rail_fast ship container cable_car subway aircraft wheelchair scooter drone" speed="27.78" length="8.04" shape="692.80,977.72 687.21,971.95"/>
        <lane id=":2036141742_1_1" index="1" disallow="tram rail_urban rail rail_electric rail_fast ship container cable_car subway aircraft wheelchair scooter drone" speed="27.78" length="8.04" shape="695.10,975.50 689.50,969.72"/>
        <lane id=":2036141742_1_2" index="2" disallow="tram rail_urban rail rail_electric rail_fast ship container cable_car subway aircraft wheelchair scooter drone" speed="27.78" length="8.04" shape="697.39,973.27 691.80,967.50"/>
    </edge>
    <edge id=":2036596690_0" function="internal">
        <lane id=":2036596690_0_0" index="0" disallow="tram rail_urban rail rail_electric rail_fast ship container cable_car subway aircraft wheelchair scooter drone" speed="6.53" length="8.53" shape="1515.37,793.73 1513.56,792.28 1511.70,791.69 1509.77,791.98 1507.78,793.14"/>
    </edge>
    <edge id=":2036596690_1" function="internal">
        <lane id=":2036596690_1_0" index="0" disallow="tram rail_urban rail rail_electric rail_fast ship container cable_car subway aircraft wheelchair scooter drone" speed="27.78" length="13.50" shape="1517.68,783.98 1515.25,786.52 1512.93,788.77 1510.50,790.92 1507.78,793.14"/>
    </edge>
    <edge id=":2230310614_0" function="internal">
        <lane id=":2230310614_0_0" index="0" disallow="tram rail_urban rail rail_electric rail_fast ship container cable_car subway aircraft wheelchair scooter drone" speed="6.51" length="8.87" shape="1462.19,1445.50 1463.68,1443.59 1464.21,1441.65 1463.80,1439.69 1462.43,1437.69"/>
    </edge>
    <edge id=":2230310614_1" function="internal">
        <lane id=":2230310614_1_0" index="0" disallow="tram rail_urban rail rail_electric rail_fast ship container cable_car subway aircraft wheelchair scooter drone" speed="13.89" length="10.73" shape="1462.19,1445.50 1464.40,1443.34 1466.09,1441.79 1467.93,1440.45 1470.59,1438.91"/>
    </edge>
    <edge id=":2664205599_0" function="internal">
        <lane id=":2664205599_0_0" index="0" disallow="tram rail_urban rail rail_electric rail_fast ship container cable_car subway aircraft wheelchair scooter drone" speed="7.65" length="13.05" shape="1374.41,418.35 1377.35,416.30 1380.23,415.71 1383.05,416.56 1385.80,418.86"/>
        <lane id=":2664205599_0_1" index="1" disallow="tram rail_urban rail rail_electric rail_fast ship container cable_car subway aircraft wheelchair scooter drone" speed="6.08" length="7.83" shape="1376.59,420.69 1378.35,419.47 1380.08,419.11 1381.77,419.62 1383.42,421.00"/>
        <lane id=":2664205599_0_2" index="2" disallow="tram rail_urban rail rail_electric rail_fast ship container cable_car subway aircraft wheelchair scooter drone" speed="3.90" length="2.61" shape="1378.77,423.04 1379.36,422.63 1379.93,422.51 1380.50,422.68 1381.05,423.14"/>
    </edge>
    <edge id=":3474054214_0" function="internal">
        <lane id=":3474054214_0_0" index="0" disallow="tram rail_urban rail rail_electric rail_fast ship container cable_car subway aircraft wheelchair scooter drone" speed="3.65" length="4.67" shape="1718.85,783.72 1720.28,783.54 1721.11,783.88 1721.33,784.75 1720.95,786.14"/>
    </edge>
    <edge id=":411917820_0" function="internal">
        <lane id=":411917820_0_0" index="0" disallow="tram rail_urban rail rail_electric rail_fast ship container cable_car subway aircraft wheelchair scooter drone" speed="13.89" length="0.29" shape="1459.75,1447.87 1459.95,1447.67"/>
    </edge>
    <edge id=":411917821_0" function="internal">
        <lane id=":411917821_0_0" index="0" disallow="tram rail_urban rail rail_electric rail_fast ship container cable_car subway aircraft wheelchair scooter drone" speed="15.28" length="15.97" shape="648.27,1288.02 640.29,1274.47"/>
        <lane id=":411917821_0_1" index="1" disallow="tram rail_urban rail rail_electric rail_fast ship container cable_car subway aircraft wheelchair scooter drone" speed="15.28" length="15.97" shape="648.27,1288.02 647.04,1284.75 646.35,1281.31 645.30,1277.42 643.00,1272.77"/>
    </edge>
    <edge id=":411917821_2" function="internal">
        <lane id=":411917821_2_0" index="0" disallow="tram rail_urban rail rail_electric rail_fast ship container cable_car subway aircraft wheelchair scooter drone" speed="3.65" length="4.67" shape="648.27,1288.02 648.40,1286.59 648.91,1285.85 649.80,1285.82 651.08,1286.49"/>
    </edge>
    <edge id=":411917821_3" function="internal">
        <lane id=":411917821_3_0" index="0" disallow="tram rail_urban rail rail_electric rail_fast ship container cable_car subway aircraft wheelchair scooter drone" speed="7.28" length="9.33" shape="653.73,1278.28 651.79,1280.44 650.71,1282.54 650.47,1284.55 651.08,1286.49"/>
    </edge>
    <edge id=":411917821_4" function="internal">
        <lane id=":411917821_4_0" index="0" disallow="tram rail_urban rail rail_electric rail_fast ship container cable_car subway aircraft wheelchair scooter drone" speed="7.37" length="13.59" shape="651.54,1275.94 648.40,1278.13 645.47,1278.61 642.77,1277.39 640.29,1274.47"/>
        <lane id=":411917821_4_1" index="1" disallow="tram rail_urban rail rail_electric rail_fast ship container cable_car subway aircraft wheelchair scooter drone" speed="5.71" length="7.68" shape="649.36,1273.60 647.58,1274.84 645.93,1275.11 644.40,1274.42 643.00,1272.77"/>
    </edge>
    <edge id=":411917924_0" function="internal">
        <lane id=":411917924_0_0" index="0" disallow="tram rail_urban rail rail_electric rail_fast ship container cable_car subway aircraft wheelchair scooter drone" speed="27.78" length="11.20" shape="1300.19,1606.44 1292.41,1598.39"/>
        <lane id=":411917924_0_1" index="1" disallow="tram rail_urban rail rail_electric rail_fast ship container cable_car subway aircraft wheelchair scooter drone" speed="27.78" length="11.20" shape="1302.49,1604.22 1294.71,1596.17"/>
        <lane id=":411917924_0_2" index="2" disallow="tram rail_urban rail rail_electric rail_fast ship container cable_car subway aircraft wheelchair scooter drone" speed="27.78" length="11.20" shape="1304.79,1602.00 1297.01,1593.94"/>
    </edge>
    <edge id=":411917924_3" function="internal">
        <lane id=":411917924_3_0" index="0" disallow="tram rail_urban rail rail_electric rail_fast ship container cable_car subway aircraft wheelchair scooter drone" speed="6.49" length="9.03" shape="1304.79,1602.00 1303.34,1599.99 1302.89,1598.00 1303.43,1596.04 1304.97,1594.10"/>
    </edge>
    <edge id=":411918058_0" function="internal">
        <lane id=":411918058_0_0" index="0" disallow="tram rail_urban rail rail_electric rail_fast ship container cable_car subway aircraft wheelchair scooter drone" speed="6.90" length="8.47" shape="1447.34,730.17 1448.46,728.04 1448.81,726.04 1448.41,724.16 1447.24,722.40"/>