<?xml version="1.0" encoding="UTF-8"?>

<!-- generated on 2026-01-26 15:23:02 by Eclipse SUMO netconvert Version 1.24.0
<netconvertConfiguration xmlns:xsi="http://www.w3.org/2001/XMLSchema-instance" xsi:noNamespaceSchemaLocation="http://sumo.dlr.de/xsd/netconvertConfiguration.xsd">

    <input>
        <osm-files value="multi-tl-map.osm"/>
    </input>

    <output>
        <output-file value="mult-tl-map-full.net.xml"/>
    </output>

    <projection>
        <proj.utm value="true"/>
    </projection>

</netconvertConfiguration>
-->

<net version="1.20" junctionCornerDetail="5" limitTurnSpeed="5.50" xmlns:xsi="http://www.w3.org/2001/XMLSchema-instance" xsi:noNamespaceSchemaLocation="http://sumo.dlr.de/xsd/net_file.xsd">

    <location netOffset="-683948.68,-1191702.58" convBoundary="0.00,0.00,1719.90,1773.59" origBoundary="106.682391,10.775855,106.698116,10.791831" projParameter="+proj=utm +zone=48 +ellps=WGS84 +datum=WGS84 +units=m +no_defs"/>

    <type id="highway.footway" priority="1" numLanes="1" speed="2.78" allow="pedestrian" oneway="1" width="2.00"/>
    <type id="highway.primary" priority="12" numLanes="2" speed="27.78" disallow="tram rail_urban rail rail_electric rail_fast ship container cable_car subway aircraft wheelchair scooter drone" oneway="0"/>
    <type id="highway.primary_link" priority="7" numLanes="1" speed="22.22" disallow="tram rail_urban rail rail_electric rail_fast ship container cable_car subway aircraft wheelchair scooter drone" oneway="0"/>
    <type id="highway.residential" priority="3" numLanes="1" speed="13.89" disallow="tram rail_urban rail rail_electric rail_fast ship container cable_car subway aircraft wheelchair scooter drone" oneway="0"/>
    <type id="highway.secondary" priority="11" numLanes="1" speed="27.78" disallow="tram rail_urban rail rail_electric rail_fast ship container cable_car subway aircraft wheelchair scooter drone" oneway="0"/>
    <type id="highway.service" priority="1" numLanes="1" speed="5.56" allow="pedestrian delivery bicycle" oneway="0"/>
    <type id="highway.steps" priority="1" numLanes="1" speed="1.39" allow="pedestrian" oneway="1" width="2.00"/>
    <type id="highway.tertiary" priority="10" numLanes="1" speed="22.22" disallow="tram rail_urban rail rail_electric rail_fast ship container cable_car subway aircraft wheelchair scooter drone" oneway="0"/>

    <edge id=":10074531550_0" function="internal">
        <lane id=":10074531550_0_0" index="0" disallow="tram rail_urban rail rail_electric rail_fast ship container cable_car subway aircraft wheelchair scooter drone" speed="13.89" length="9.46" shape="616.36,1425.41 608.55,1430.75"/>
    </edge>
    <edge id=":10074531550_1" function="internal">
        <lane id=":10074531550_1_0" index="0" allow="pedestrian delivery bicycle" speed="6.89" length="3.28" shape="616.36,1425.41 613.88,1426.64 613.37,1426.68"/>
    </edge>
    <edge id=":10074531550_7" function="internal">
        <lane id=":10074531550_7_0" index="0" allow="pedestrian delivery bicycle" speed="6.89" length="6.91" shape="613.37,1426.68 611.59,1426.79 609.48,1425.83 607.56,1423.78"/>
    </edge>
    <edge id=":10074531550_2" function="internal">
        <lane id=":10074531550_2_0" index="0" allow="pedestrian delivery bicycle" speed="5.08" length="5.06" shape="610.17,1421.94 611.13,1422.97 612.18,1423.45 613.32,1423.38 614.54,1422.78"/>
    </edge>
    <edge id=":10074531550_3" function="internal">
        <lane id=":10074531550_3_0" index="0" allow="pedestrian delivery bicycle" speed="6.85" length="10.26" shape="610.17,1421.94 611.45,1424.45 611.61,1426.76 610.64,1428.86 608.55,1430.75"/>
    </edge>
    <edge id=":10074531550_4" function="internal">
        <lane id=":10074531550_4_0" index="0" allow="pedestrian delivery bicycle" speed="3.65" length="4.67" shape="610.17,1421.94 610.21,1423.38 609.79,1424.17 608.90,1424.30 607.56,1423.78"/>
    </edge>
    <edge id=":10074531550_5" function="internal">
        <lane id=":10074531550_5_0" index="0" allow="pedestrian delivery bicycle" speed="5.02" length="5.02" shape="606.76,1428.09 607.79,1427.17 608.26,1426.14 608.18,1425.01 607.56,1423.78"/>
    </edge>
    <edge id=":10074531550_6" function="internal">
        <lane id=":10074531550_6_0" index="0" disallow="tram rail_urban rail rail_electric rail_fast ship container cable_car subway aircraft wheelchair scooter drone" speed="13.89" length="9.42" shape="606.76,1428.09 614.54,1422.78"/>
    </edge>
    <edge id=":10170415566_0" function="internal">
        <lane id=":10170415566_0_0" index="0" allow="pedestrian delivery bicycle" speed="3.65" length="4.67" shape="493.32,1598.48 491.88,1598.60 491.08,1598.22 490.89,1597.34 491.34,1595.97"/>
    </edge>
    <edge id=":10172694568_0" function="internal">
        <lane id=":10172694568_0_0" index="0" allow="pedestrian delivery bicycle" speed="3.65" length="4.67" shape="1548.88,1440.16 1548.65,1438.73 1548.97,1437.90 1549.83,1437.65 1551.23,1437.98"/>
    </edge>
    <edge id=":10211635460_0" function="internal">
        <lane id=":10211635460_0_0" index="0" allow="pedestrian delivery bicycle" speed="5.56" length="9.40" shape="1392.08,1630.56 1385.62,1623.72"/>
    </edge>
    <edge id=":10211635460_1" function="internal">
        <lane id=":10211635460_1_0" index="0" allow="pedestrian delivery bicycle" speed="5.56" length="10.29" shape="1392.08,1630.56 1390.44,1628.24 1389.96,1625.98 1390.64,1623.76 1392.46,1621.60"/>
    </edge>
    <edge id=":10211635460_2" function="internal">
        <lane id=":10211635460_2_0" index="0" allow="pedestrian delivery bicycle" speed="3.65" length="4.67" shape="1392.08,1630.56 1391.83,1629.14 1392.14,1628.30 1393.00,1628.04 1394.40,1628.36"/>
    </edge>
    <edge id=":10211635460_3" function="internal">
        <lane id=":10211635460_3_0" index="0" allow="pedestrian delivery bicycle" speed="5.01" length="5.03" shape="1394.59,1623.98 1393.70,1625.04 1393.37,1626.13 1393.61,1627.23 1394.40,1628.36"/>
    </edge>
    <edge id=":10211635460_4" function="internal">
        <lane id=":10211635460_4_0" index="0" allow="pedestrian delivery bicycle" speed="5.56" length="10.17" shape="1394.59,1623.98 1392.26,1625.55 1389.98,1626.03 1387.77,1625.42 1385.62,1623.72"/>
    </edge>
    <edge id=":10211635460_5" function="internal">
        <lane id=":10211635460_5_0" index="0" allow="pedestrian delivery bicycle" speed="3.65" length="4.67" shape="1394.59,1623.98 1393.16,1624.19 1392.33,1623.86 1392.10,1622.99 1392.46,1621.60"/>
    </edge>
    <edge id=":10211635460_6" function="internal">
        <lane id=":10211635460_6_0" index="0" allow="pedestrian delivery bicycle" speed="5.13" length="5.11" shape="1387.95,1621.53 1389.02,1622.36 1390.13,1622.65 1391.27,1622.40 1392.46,1621.60"/>
    </edge>
    <edge id=":10211635460_7" function="internal">
        <lane id=":10211635460_7_0" index="0" allow="pedestrian delivery bicycle" speed="5.56" length="9.40" shape="1387.95,1621.53 1394.40,1628.36"/>
    </edge>
    <edge id=":10211635460_8" function="internal">
        <lane id=":10211635460_8_0" index="0" allow="pedestrian delivery bicycle" speed="3.65" length="4.67" shape="1387.95,1621.53 1388.19,1622.95 1387.89,1623.79 1387.03,1624.05 1385.62,1623.72"/>
    </edge>
    <edge id=":10211635461_0" function="internal">
        <lane id=":10211635461_0_0" index="0" allow="pedestrian delivery bicycle" speed="3.65" length="4.67" shape="1406.81,1608.77 1408.24,1608.57 1409.07,1608.90 1409.31,1609.76 1408.95,1611.15"/>
    </edge>
    <edge id=":10289256283_0" function="internal">
        <lane id=":10289256283_0_0" index="0" allow="pedestrian delivery bicycle" speed="3.65" length="4.67" shape="876.05,1243.76 875.91,1245.19 875.39,1245.92 874.50,1245.94 873.23,1245.26"/>
    </edge>
    <edge id=":10289893322_0" function="internal">
        <lane id=":10289893322_0_0" index="0" allow="pedestrian delivery bicycle" speed="4.50" length="3.75" shape="1506.85,1320.62 1507.83,1321.58 1508.68,1322.13 1509.39,1322.29 1509.97,1322.03"/>
    </edge>
    <edge id=":10289893322_1" function="internal">
        <lane id=":10289893322_1_0" index="0" allow="pedestrian delivery bicycle" speed="3.65" length="4.67" shape="1506.85,1320.62 1507.06,1322.04 1506.73,1322.87 1505.87,1323.11 1504.47,1322.76"/>
    </edge>
    <edge id=":10289893322_2" function="internal">
        <lane id=":10289893322_2_0" index="0" allow="pedestrian delivery bicycle" speed="5.03" length="5.01" shape="1504.23,1327.13 1505.12,1326.09 1505.45,1325.01 1505.24,1323.90 1504.47,1322.76"/>
    </edge>
    <edge id=":10289893322_3" function="internal">
        <lane id=":10289893322_3_0" index="0" disallow="tram rail_urban rail rail_electric rail_fast ship container cable_car subway aircraft wheelchair scooter drone" speed="22.22" length="7.68" shape="1504.23,1327.13 1509.97,1322.03"/>
        <lane id=":10289893322_3_1" index="1" disallow="tram rail_urban rail rail_electric rail_fast ship container cable_car subway aircraft wheelchair scooter drone" speed="22.22" length="7.68" shape="1506.36,1329.53 1512.09,1324.43"/>
    </edge>
    <edge id=":10290876317_0" function="internal">
        <lane id=":10290876317_0_0" index="0" allow="pedestrian delivery bicycle" speed="3.65" length="4.67" shape="403.68,1070.63 402.55,1071.53 401.67,1071.67 401.03,1071.05 400.63,1069.66"/>
    </edge>
    <edge id=":10290876318_0" function="internal">
        <lane id=":10290876318_0_0" index="0" allow="pedestrian delivery bicycle" speed="3.65" length="4.67" shape="405.85,1116.73 404.70,1115.86 404.35,1115.03 404.80,1114.26 406.05,1113.53"/>
    </edge>
    <edge id=":10290876319_0" function="internal">
        <lane id=":10290876319_0_0" index="0" allow="pedestrian delivery bicycle" speed="3.65" length="4.67" shape="429.63,1115.01 430.78,1115.89 431.13,1116.71 430.68,1117.48 429.43,1118.21"/>
    </edge>
    <edge id=":10290922538_0" function="internal">
        <lane id=":10290922538_0_0" index="0" allow="pedestrian delivery bicycle" speed="3.65" length="4.67" shape="446.93,1094.48 447.76,1095.65 447.85,1096.54 447.20,1097.15 445.79,1097.47"/>
    </edge>
    <edge id=":10291078308_0" function="internal">
        <lane id=":10291078308_0_0" index="0" allow="pedestrian delivery bicycle" speed="3.65" length="4.67" shape="466.10,1368.19 464.93,1367.35 464.55,1366.54 464.98,1365.75 466.20,1364.99"/>
    </edge>
    <edge id=":10291112014_0" function="internal">
        <lane id=":10291112014_0_0" index="0" disallow="tram rail_urban rail rail_electric rail_fast ship container cable_car subway aircraft wheelchair scooter drone" speed="6.40" length="9.04" shape="1270.88,1205.13 1269.25,1207.02 1268.64,1208.95 1269.06,1210.93 1270.51,1212.96"/>
    </edge>
    <edge id=":10291112014_1" function="internal">
        <lane id=":10291112014_1_0" index="0" disallow="tram rail_urban rail rail_electric rail_fast ship container cable_car subway aircraft wheelchair scooter drone" speed="3.65" length="4.67" shape="1270.88,1205.13 1269.45,1205.31 1268.63,1204.97 1268.41,1204.10 1268.79,1202.71"/>
    </edge>
    <edge id=":10291112014_2" function="internal">
        <lane id=":10291112014_2_0" index="0" disallow="tram rail_urban rail rail_electric rail_fast ship container cable_car subway aircraft wheelchair scooter drone" speed="6.71" length="9.29" shape="1260.55,1202.54 1262.50,1204.05 1264.52,1204.58 1266.62,1204.13 1268.79,1202.71"/>
    </edge>
    <edge id=":10291112014_3" function="internal">
        <lane id=":10291112014_3_0" index="0" disallow="tram rail_urban rail rail_electric rail_fast ship container cable_car subway aircraft wheelchair scooter drone" speed="27.78" length="14.41" shape="1260.55,1202.54 1270.51,1212.96"/>
        <lane id=":10291112014_3_1" index="1" disallow="tram rail_urban rail rail_electric rail_fast ship container cable_car subway aircraft wheelchair scooter drone" speed="27.78" length="14.41" shape="1258.24,1204.75 1268.20,1215.17"/>
        <lane id=":10291112014_3_2" index="2" disallow="tram rail_urban rail rail_electric rail_fast ship container cable_car subway aircraft wheelchair scooter drone" speed="27.78" length="14.41" shape="1255.93,1206.97 1265.88,1217.38"/>
    </edge>
    <edge id=":10304399235_0" function="internal">
        <lane id=":10304399235_0_0" index="0" allow="pedestrian delivery bicycle" speed="5.56" length="9.39" shape="1033.41,1397.04 1027.34,1389.88"/>
    </edge>
    <edge id=":10304399235_1" function="internal">
        <lane id=":10304399235_1_0" index="0" allow="pedestrian delivery bicycle" speed="5.56" length="10.19" shape="1033.41,1397.04 1032.05,1394.80 1031.72,1392.53 1032.43,1390.25 1034.16,1387.94"/>
    </edge>
    <edge id=":10304399235_2" function="internal">
        <lane id=":10304399235_2_0" index="0" allow="pedestrian delivery bicycle" speed="3.65" length="4.67" shape="1033.41,1397.04 1033.25,1395.61 1033.61,1394.79 1034.48,1394.58 1035.86,1394.99"/>
    </edge>
    <edge id=":10304399235_3" function="internal">
        <lane id=":10304399235_3_0" index="0" allow="pedestrian delivery bicycle" speed="5.39" length="5.41" shape="1036.46,1390.17 1035.49,1391.43 1035.06,1392.65 1035.19,1393.84 1035.86,1394.99"/>
    </edge>
    <edge id=":10304399235_4" function="internal">
        <lane id=":10304399235_4_0" index="0" allow="pedestrian delivery bicycle" speed="5.56" length="10.63" shape="1036.46,1390.17 1034.12,1391.97 1031.82,1392.52 1029.56,1391.83 1027.34,1389.88"/>
    </edge>
    <edge id=":10304399235_5" function="internal">
        <lane id=":10304399235_5_0" index="0" allow="pedestrian delivery bicycle" speed="3.65" length="4.67" shape="1036.46,1390.17 1035.05,1390.47 1034.19,1390.20 1033.90,1389.36 1034.16,1387.94"/>
    </edge>
    <edge id=":10304399235_6" function="internal">
        <lane id=":10304399235_6_0" index="0" allow="pedestrian delivery bicycle" speed="4.95" length="5.11" shape="1029.78,1387.80 1030.85,1388.74 1031.93,1389.07 1033.04,1388.81 1034.16,1387.94"/>
    </edge>
    <edge id=":10304399235_7" function="internal">
        <lane id=":10304399235_7_0" index="0" allow="pedestrian delivery bicycle" speed="5.56" length="9.42" shape="1029.78,1387.80 1035.86,1394.99"/>
    </edge>
    <edge id=":10304399235_8" function="internal">
        <lane id=":10304399235_8_0" index="0" allow="pedestrian delivery bicycle" speed="3.65" length="4.67" shape="1029.78,1387.80 1029.95,1389.23 1029.60,1390.05 1028.73,1390.27 1027.34,1389.88"/>
    </edge>
    <edge id=":10304399236_0" function="internal">
        <lane id=":10304399236_0_0" index="0" allow="pedestrian delivery bicycle" speed="3.65" length="4.67" shape="1037.48,1384.53 1038.89,1384.22 1039.74,1384.49 1040.03,1385.34 1039.77,1386.76"/>
    </edge>
    <edge id=":10536394349_0" function="internal">
        <lane id=":10536394349_0_0" index="0" allow="pedestrian delivery bicycle" speed="3.65" length="4.67" shape="602.88,992.24 603.85,993.31 604.04,994.19 603.46,994.87 602.10,995.35"/>
    </edge>
    <edge id=":10536394352_0" function="internal">
        <lane id=":10536394352_0_0" index="0" allow="pedestrian delivery bicycle" speed="3.65" length="4.67" shape="629.37,1009.37 629.88,1010.72 629.74,1011.61 628.95,1012.02 627.51,1011.97"/>
    </edge>
    <edge id=":10724186045_0" function="internal">
        <lane id=":10724186045_0_0" index="0" allow="pedestrian delivery bicycle" speed="3.65" length="4.67" shape="859.32,468.35 859.57,469.77 859.26,470.61 858.40,470.87 857.00,470.55"/>
    </edge>
    <edge id=":10724329049_0" function="internal">
        <lane id=":10724329049_0_0" index="0" allow="pedestrian delivery bicycle" speed="3.83" length="2.93" shape="1181.93,561.13 1181.44,560.51 1180.88,560.28 1180.25,560.42 1179.53,560.94"/>
    </edge>
    <edge id=":10724329049_1" function="internal">
        <lane id=":10724329049_1_0" index="0" allow="pedestrian delivery bicycle" speed="5.56" length="8.79" shape="1177.33,558.63 1179.46,557.06 1181.37,556.62 1183.05,557.33 1184.51,559.19"/>
    </edge>
    <edge id=":10724329054_0" function="internal">
        <lane id=":10724329054_0_0" index="0" allow="pedestrian delivery bicycle" speed="5.56" length="4.60" shape="1184.27,578.86 1183.50,578.30 1182.52,578.02 1181.32,578.04 1179.92,578.34"/>
    </edge>
    <edge id=":10724329054_1" function="internal">
        <lane id=":10724329054_1_0" index="0" allow="pedestrian delivery bicycle" speed="5.56" length="9.23" shape="1184.27,578.86 1182.80,576.84 1182.17,574.76 1182.38,572.63 1183.42,570.45"/>
    </edge>
    <edge id=":10724329054_2" function="internal">
        <lane id=":10724329054_2_0" index="0" allow="pedestrian delivery bicycle" speed="3.65" length="4.67" shape="1184.27,578.86 1184.03,577.43 1184.33,576.59 1185.19,576.34 1186.59,576.66"/>
    </edge>
    <edge id=":10724329054_3" function="internal">
        <lane id=":10724329054_3_0" index="0" allow="pedestrian delivery bicycle" speed="5.41" length="4.89" shape="1186.09,572.21 1185.55,573.35 1185.46,574.47 1185.80,575.58 1186.59,576.66"/>
    </edge>
    <edge id=":10724329054_4" function="internal">
        <lane id=":10724329054_4_0" index="0" allow="pedestrian delivery bicycle" speed="5.56" length="9.04" shape="1186.09,572.21 1184.70,574.52 1183.67,576.17 1182.31,577.37 1179.92,578.34"/>
    </edge>
    <edge id=":10724329054_5" function="internal">
        <lane id=":10724329054_5_0" index="0" allow="pedestrian delivery bicycle" speed="3.65" length="4.67" shape="1186.09,572.21 1184.76,572.77 1183.88,572.66 1183.43,571.89 1183.42,570.45"/>
    </edge>
    <edge id=":10724329054_6" function="internal">
        <lane id=":10724329054_6_0" index="0" allow="pedestrian delivery bicycle" speed="5.56" length="7.68" shape="1178.06,575.55 1180.11,574.75 1181.31,573.76 1182.22,572.40 1183.42,570.45"/>
    </edge>
    <edge id=":10724329054_7" function="internal">
        <lane id=":10724329054_7_0" index="0" allow="pedestrian delivery bicycle" speed="5.56" length="9.05" shape="1178.06,575.55 1180.79,574.97 1183.12,574.96 1185.05,575.52 1186.59,576.66"/>
    </edge>
    <edge id=":10724329054_8" function="internal">
        <lane id=":10724329054_8_0" index="0" allow="pedestrian delivery bicycle" speed="3.71" length="4.89" shape="1178.06,575.55 1179.57,575.55 1180.38,576.02 1180.50,576.95 1179.92,578.34"/>
    </edge>
    <edge id=":10724329059_0" function="internal">
        <lane id=":10724329059_0_0" index="0" allow="pedestrian delivery bicycle" speed="5.08" length="5.05" shape="1192.45,582.85 1193.54,583.72 1194.65,584.04 1195.76,583.82 1196.89,583.05"/>
    </edge>
    <edge id=":10724329059_1" function="internal">
        <lane id=":10724329059_1_0" index="0" allow="pedestrian delivery bicycle" speed="3.65" length="4.67" shape="1192.45,582.85 1192.70,584.27 1192.39,585.11 1191.53,585.37 1190.13,585.05"/>
    </edge>
    <edge id=":10724329059_2" function="internal">
        <lane id=":10724329059_2_0" index="0" allow="pedestrian delivery bicycle" speed="5.03" length="5.01" shape="1189.98,589.43 1190.85,588.36 1191.16,587.27 1190.92,586.17 1190.13,585.05"/>
    </edge>
    <edge id=":10724329059_3" function="internal">
        <lane id=":10724329059_3_0" index="0" disallow="tram rail_urban rail rail_electric rail_fast ship container cable_car subway aircraft wheelchair scooter drone" speed="27.78" length="9.40" shape="1189.98,589.43 1196.89,583.05"/>
        <lane id=":10724329059_3_1" index="1" disallow="tram rail_urban rail rail_electric rail_fast ship container cable_car subway aircraft wheelchair scooter drone" speed="27.78" length="9.40" shape="1192.15,591.78 1199.06,585.40"/>
        <lane id=":10724329059_3_2" index="2" disallow="tram rail_urban rail rail_electric rail_fast ship container cable_car subway aircraft wheelchair scooter drone" speed="27.78" length="9.40" shape="1194.33,594.13 1201.23,587.75"/>
    </edge>
    <edge id=":10725445599_0" function="internal">
        <lane id=":10725445599_0_0" index="0" allow="pedestrian delivery bicycle" speed="3.65" length="4.67" shape="904.82,509.19 904.58,507.77 904.88,506.93 905.74,506.67 907.15,506.99"/>
    </edge>
    <edge id=":10725445600_0" function="internal">
        <lane id=":10725445600_0_0" index="0" allow="pedestrian delivery bicycle" speed="5.56" length="9.48" shape="933.07,538.93 926.50,532.10"/>
    </edge>
    <edge id=":10725445600_1" function="internal">
        <lane id=":10725445600_1_0" index="0" allow="pedestrian delivery bicycle" speed="5.56" length="10.26" shape="933.07,538.93 931.41,536.66 930.88,534.41 931.50,532.18 933.26,529.98"/>
    </edge>
    <edge id=":10725445600_2" function="internal">
        <lane id=":10725445600_2_0" index="0" allow="pedestrian delivery bicycle" speed="3.65" length="4.67" shape="933.07,538.93 932.81,537.52 933.10,536.67 933.95,536.40 935.36,536.69"/>
    </edge>
    <edge id=":10725445600_3" function="internal">
        <lane id=":10725445600_3_0" index="0" allow="pedestrian delivery bicycle" speed="5.02" length="5.02" shape="935.45,532.31 934.59,533.39 934.29,534.48 934.54,535.58 935.36,536.69"/>
    </edge>
    <edge id=":10725445600_4" function="internal">
        <lane id=":10725445600_4_0" index="0" allow="pedestrian delivery bicycle" speed="5.56" length="10.21" shape="935.45,532.31 933.15,533.93 930.90,534.44 928.68,533.83 926.50,532.10"/>
    </edge>
    <edge id=":10725445600_5" function="internal">
        <lane id=":10725445600_5_0" index="0" allow="pedestrian delivery bicycle" speed="3.65" length="4.67" shape="935.45,532.31 934.03,532.55 933.19,532.24 932.93,531.39 933.26,529.98"/>
    </edge>
    <edge id=":10725445600_6" function="internal">
        <lane id=":10725445600_6_0" index="0" allow="pedestrian delivery bicycle" speed="5.07" length="5.05" shape="928.82,529.90 929.90,530.75 930.99,531.05 932.11,530.79 933.26,529.98"/>
    </edge>
    <edge id=":10725445600_7" function="internal">
        <lane id=":10725445600_7_0" index="0" allow="pedestrian delivery bicycle" speed="5.56" length="9.43" shape="928.82,529.90 935.36,536.69"/>
    </edge>
    <edge id=":10725445600_8" function="internal">
        <lane id=":10725445600_8_0" index="0" allow="pedestrian delivery bicycle" speed="3.65" length="4.67" shape="928.82,529.90 929.07,531.32 928.76,532.16 927.90,532.42 926.50,532.10"/>
    </edge>
    <edge id=":10725445601_0" function="internal">
        <lane id=":10725445601_0_0" index="0" allow="pedestrian delivery bicycle" speed="5.56" length="5.25" shape="939.52,528.49 935.69,532.09"/>
    </edge>
    <edge id=":10725445601_1" function="internal">
        <lane id=":10725445601_1_0" index="0" allow="pedestrian delivery bicycle" speed="5.56" length="7.02" shape="939.52,528.49 938.55,528.86 937.27,528.47 935.66,527.35 933.73,525.47"/>
    </edge>
    <edge id=":10725445601_2" function="internal">
        <lane id=":10725445601_2_0" index="0" allow="pedestrian delivery bicycle" speed="3.65" length="4.67" shape="939.52,528.49 938.09,528.71 937.26,528.38 937.01,527.52 937.36,526.12"/>
    </edge>
    <edge id=":10725445601_3" function="internal">
        <lane id=":10725445601_3_0" index="0" allow="pedestrian delivery bicycle" speed="5.56" length="9.80" shape="936.26,523.49 937.72,525.64 938.11,527.79 937.44,529.94 935.69,532.09"/>
    </edge>
    <edge id=":10725445601_4" function="internal">
        <lane id=":10725445601_4_0" index="0" allow="pedestrian delivery bicycle" speed="4.05" length="2.85" shape="936.26,523.49 937.36,526.12"/>
    </edge>
    <edge id=":10725445601_5" function="internal">
        <lane id=":10725445601_5_0" index="0" allow="pedestrian delivery bicycle" speed="3.65" length="4.69" shape="936.26,523.49 936.37,524.94 935.99,525.75 935.11,525.93 933.73,525.47"/>
    </edge>
    <edge id=":10725445601_6" function="internal">
        <lane id=":10725445601_6_0" index="0" allow="pedestrian delivery bicycle" speed="5.00" length="4.88" shape="933.49,529.76 934.35,528.69 934.68,527.63 934.47,526.55 933.73,525.47"/>
    </edge>
    <edge id=":10725445601_7" function="internal">
        <lane id=":10725445601_7_0" index="0" allow="pedestrian delivery bicycle" speed="5.56" length="5.31" shape="933.49,529.76 937.36,526.12"/>
    </edge>
    <edge id=":10725445601_8" function="internal">
        <lane id=":10725445601_8_0" index="0" allow="pedestrian delivery bicycle" speed="3.65" length="4.67" shape="933.49,529.76 934.92,529.52 935.76,529.82 936.01,530.68 935.69,532.09"/>
    </edge>
    <edge id=":10725453005_0" function="internal">
        <lane id=":10725453005_0_0" index="0" allow="pedestrian delivery bicycle" speed="5.56" length="10.21" shape="937.51,525.99 940.87,516.34"/>
    </edge>
    <edge id=":10725453005_1" function="internal">
        <lane id=":10725453005_1_0" index="0" allow="pedestrian delivery bicycle" speed="5.56" length="12.83" shape="937.51,525.99 925.05,529.02"/>
    </edge>
    <edge id=":10725453005_2" function="internal">
        <lane id=":10725453005_2_0" index="0" allow="pedestrian delivery bicycle" speed="3.65" length="4.67" shape="937.51,525.99 938.94,525.77 939.77,526.10 940.01,526.96 939.66,528.36"/>
    </edge>
    <edge id=":10725453005_3" function="internal">
        <lane id=":10725453005_3_0" index="0" allow="pedestrian delivery bicycle" speed="5.56" length="12.78" shape="927.24,531.35 939.66,528.36"/>
    </edge>
    <edge id=":10725453005_4" function="internal">
        <lane id=":10725453005_4_0" index="0" allow="pedestrian delivery bicycle" speed="5.56" length="20.27" shape="927.24,531.35 940.87,516.34"/>
    </edge>
    <edge id=":10725453005_5" function="internal">
        <lane id=":10725453005_5_0" index="0" allow="pedestrian delivery bicycle" speed="3.65" length="4.67" shape="927.24,531.35 925.82,531.59 924.98,531.28 924.72,530.43 925.05,529.02"/>
    </edge>
    <edge id=":10725453005_6" function="internal">
        <lane id=":10725453005_6_0" index="0" allow="pedestrian delivery bicycle" speed="5.56" length="23.47" shape="943.20,514.15 925.05,529.02"/>
    </edge>
    <edge id=":10725453005_7" function="internal">
        <lane id=":10725453005_7_0" index="0" allow="pedestrian delivery bicycle" speed="5.56" length="16.53" shape="943.20,514.15 945.06,517.24 945.09,520.64 943.29,524.34 939.66,528.36"/>
    </edge>
    <edge id=":10725453005_8" function="internal">
        <lane id=":10725453005_8_0" index="0" allow="pedestrian delivery bicycle" speed="5.56" length="4.67" shape="943.20,514.15 943.44,515.57 943.13,516.41 942.28,516.67 940.87,516.34"/>
    </edge>
    <edge id=":10725453006_0" function="internal">
        <lane id=":10725453006_0_0" index="0" allow="pedestrian delivery bicycle" speed="5.56" length="9.41" shape="989.96,472.52 983.10,478.95"/>
    </edge>
    <edge id=":10725453006_1" function="internal">
        <lane id=":10725453006_1_0" index="0" allow="pedestrian delivery bicycle" speed="5.56" length="10.21" shape="989.96,472.52 987.67,474.13 985.42,474.61 983.21,473.96 981.04,472.19"/>
    </edge>
    <edge id=":10725453006_2" function="internal">
        <lane id=":10725453006_2_0" index="0" allow="pedestrian delivery bicycle" speed="3.65" length="4.67" shape="989.96,472.52 988.54,472.76 987.70,472.45 987.45,471.59 987.77,470.18"/>
    </edge>
    <edge id=":10725453006_3" function="internal">
        <lane id=":10725453006_3_0" index="0" allow="pedestrian delivery bicycle" speed="5.03" length="5.01" shape="983.39,470.02 984.46,470.89 985.54,471.21 986.65,470.97 987.77,470.18"/>
    </edge>
    <edge id=":10725453006_4" function="internal">
        <lane id=":10725453006_4_0" index="0" allow="pedestrian delivery bicycle" speed="5.56" length="10.17" shape="983.39,470.02 984.98,472.33 985.46,474.58 984.83,476.79 983.10,478.95"/>
    </edge>
    <edge id=":10725453006_5" function="internal">
        <lane id=":10725453006_5_0" index="0" allow="pedestrian delivery bicycle" speed="3.65" length="4.67" shape="983.39,470.02 983.62,471.45 983.30,472.29 982.44,472.53 981.04,472.19"/>
    </edge>
    <edge id=":10725453006_6" function="internal">
        <lane id=":10725453006_6_0" index="0" allow="pedestrian delivery bicycle" speed="5.07" length="5.04" shape="980.92,476.62 981.77,475.55 982.07,474.46 981.83,473.34 981.04,472.19"/>
    </edge>
    <edge id=":10725453006_7" function="internal">
        <lane id=":10725453006_7_0" index="0" allow="pedestrian delivery bicycle" speed="5.56" length="9.40" shape="980.92,476.62 987.77,470.18"/>
    </edge>
    <edge id=":10725453006_8" function="internal">
        <lane id=":10725453006_8_0" index="0" allow="pedestrian delivery bicycle" speed="3.65" length="4.67" shape="980.92,476.62 982.34,476.38 983.18,476.69 983.43,477.55 983.10,478.95"/>
    </edge>
    <edge id=":10725453009_0" function="internal">
        <lane id=":10725453009_0_0" index="0" allow="pedestrian delivery bicycle" speed="3.65" length="4.67" shape="927.24,496.36 927.02,494.93 927.34,494.09 928.20,493.85 929.60,494.19"/>
    </edge>
    <edge id=":10725453010_0" function="internal">
        <lane id=":10725453010_0_0" index="0" allow="pedestrian delivery bicycle" speed="5.56" length="9.39" shape="949.14,510.77 942.29,517.20"/>
    </edge>
    <edge id=":10725453010_1" function="internal">
        <lane id=":10725453010_1_0" index="0" allow="pedestrian delivery bicycle" speed="5.56" length="10.20" shape="949.14,510.77 946.85,512.38 944.60,512.86 942.39,512.21 940.22,510.44"/>
    </edge>
    <edge id=":10725453010_2" function="internal">
        <lane id=":10725453010_2_0" index="0" allow="pedestrian delivery bicycle" speed="3.65" length="4.67" shape="949.14,510.77 947.72,511.01 946.88,510.70 946.63,509.84 946.95,508.44"/>
    </edge>
    <edge id=":10725453010_3" function="internal">
        <lane id=":10725453010_3_0" index="0" allow="pedestrian delivery bicycle" speed="5.03" length="5.01" shape="942.57,508.28 943.64,509.15 944.72,509.46 945.83,509.23 946.95,508.44"/>
    </edge>
    <edge id=":10725453010_4" function="internal">