<?xml version="1.0" encoding="UTF-8"?>

<!-- generated on 2026-01-20 16:28:00 by Eclipse SUMO netedit Version 1.24.0
<neteditConfiguration xmlns:xsi="http://www.w3.org/2001/XMLSchema-instance" xsi:noNamespaceSchemaLocation="http://sumo.dlr.de/xsd/neteditConfiguration.xsd">

    <input>
        <sumo-net-file value="D:\AfterGradEx\de_traffic_control\multi-junction-map.net.xml"/>
    </input>

    <output>
        <output-file value="D:\AfterGradEx\de_traffic_control\multi-junction-map.net.xml"/>
    </output>

    <processing>
        <geometry.min-radius.fix.railways value="false"/>
        <geometry.avoid-overlap value="false"/>
        <geometry.max-grade.fix value="false"/>
        <offset.disable-normalization value="true"/>
        <lefthand value="0"/>
    </processing>

    <junctions>
        <no-turnarounds value="true"/>
        <junctions.corner-detail value="5"/>
        <junctions.limit-turn-speed value="5.50"/>
        <rectangular-lane-cut value="0"/>
    </junctions>

    <pedestrian>
        <walkingareas value="0"/>
    </pedestrian>

</neteditConfiguration>
-->

<net version="1.20" junctionCornerDetail="5" limitTurnSpeed="5.50" avoidOverlap="0" xmlns:xsi="http://www.w3.org/2001/XMLSchema-instance" xsi:noNamespaceSchemaLocation="http://sumo.dlr.de/xsd/net_file.xsd">

    <location netOffset="-683948.68,-1191702.58" convBoundary="230.16,366.67,1719.90,1773.59" origBoundary="106.682391,10.775855,106.698116,10.791831" projParameter="+proj=utm +zone=48 +ellps=WGS84 +datum=WGS84 +units=m +no_defs"/>

    <type id="highway.footway" priority="1" numLanes="1" speed="2.78" allow="pedestrian" oneway="1" width="2.00"/>
    <type id="highway.primary" priority="12" numLanes="2" speed="27.78" disallow="tram rail_urban rail rail_electric rail_fast ship container cable_car subway aircraft wheelchair scooter drone" oneway="0"/>
    <type id="highway.primary_link" priority="7" numLanes="1" speed="22.22" disallow="tram rail_urban rail rail_electric rail_fast ship container cable_car subway aircraft wheelchair scooter drone" oneway="0"/>
    <type id="highway.residential" priority="3" numLanes="1" speed="13.89" disallow="tram rail_urban rail rail_electric rail_fast ship container cable_car subway aircraft wheelchair scooter drone" oneway="0"/>
    <type id="highway.secondary" priority="11" numLanes="1" speed="27.78" disallow="tram rail_urban rail rail_electric rail_fast ship container cable_car subway aircraft wheelchair scooter drone" oneway="0"/>
    <type id="highway.service" priority="1" numLanes="1" speed="5.56" allow="pedestrian delivery bicycle" oneway="0"/>
    <type id="highway.steps" priority="1" numLanes="1" speed="1.39" allow="pedestrian" oneway="1" width="2.00"/>
    <type id="highway.tertiary" priority="10" numLanes="1" speed="22.22" disallow="tram rail_urban rail rail_electric rail_fast ship container cable_car subway aircraft wheelchair scooter drone" oneway="0"/>

    <edge id=":10074531550_0" function="internal">
        <lane id=":10074531550_0_0" index="0" disallow="tram rail_urban rail rail_electric rail_fast ship container cable_car subway aircraft wheelchair scooter drone" speed="13.89" length="0.31" shape="612.64,1427.99 612.38,1428.17"/>
    </edge>
    <edge id=":10074531550_1" function="internal">
        <lane id=":10074531550_1_0" index="0" disallow="tram rail_urban rail rail_electric rail_fast ship container cable_car subway aircraft wheelchair scooter drone" speed="13.89" length="0.27" shape="610.59,1425.52 610.82,1425.36"/>
    </edge>
    <edge id=":10289893322_0" function="internal">
        <lane id=":10289893322_0_0" index="0" disallow="tram rail_urban rail rail_electric rail_fast ship container cable_car subway aircraft wheelchair scooter drone" speed="22.22" length="0.30" shape="1507.64,1324.09 1507.87,1323.89"/>
        <lane id=":10289893322_0_1" index="1" disallow="tram rail_urban rail rail_electric rail_fast ship container cable_car subway aircraft wheelchair scooter drone" speed="22.22" length="0.30" shape="1509.77,1326.49 1509.99,1326.29"/>
    </edge>
    <edge id=":10291112014_0" function="internal">
        <lane id=":10291112014_0_0" index="0" disallow="tram rail_urban rail rail_electric rail_fast ship container cable_car subway aircraft wheelchair scooter drone" speed="27.78" length="0.10" shape="1265.36,1207.58 1265.36,1207.58"/>
        <lane id=":10291112014_0_1" index="1" disallow="tram rail_urban rail rail_electric rail_fast ship container cable_car subway aircraft wheelchair scooter drone" speed="27.78" length="0.10" shape="1263.05,1209.79 1263.05,1209.79"/>
        <lane id=":10291112014_0_2" index="2" disallow="tram rail_urban rail rail_electric rail_fast ship container cable_car subway aircraft wheelchair scooter drone" speed="27.78" length="0.10" shape="1260.74,1212.00 1260.74,1212.00"/>
    </edge>
    <edge id=":10724329059_0" function="internal">
        <lane id=":10724329059_0_0" index="0" disallow="tram rail_urban rail rail_electric rail_fast ship container cable_car subway aircraft wheelchair scooter drone" speed="27.78" length="0.10" shape="1193.48,586.20 1193.48,586.20"/>
        <lane id=":10724329059_0_1" index="1" disallow="tram rail_urban rail rail_electric rail_fast ship container cable_car subway aircraft wheelchair scooter drone" speed="27.78" length="0.10" shape="1195.65,588.55 1195.65,588.55"/>
        <lane id=":10724329059_0_2" index="2" disallow="tram rail_urban rail rail_electric rail_fast ship container cable_car subway aircraft wheelchair scooter drone" speed="27.78" length="0.10" shape="1197.82,590.90 1197.82,590.90"/>
    </edge>
    <edge id=":10725627685_0" function="internal">
        <lane id=":10725627685_0_0" index="0" disallow="tram rail_urban rail rail_electric rail_fast ship container cable_car subway aircraft wheelchair scooter drone" speed="16.67" length="0.30" shape="638.52,568.39 638.74,568.60"/>
        <lane id=":10725627685_0_1" index="1" disallow="tram rail_urban rail rail_electric rail_fast ship container cable_car subway aircraft wheelchair scooter drone" speed="16.67" length="0.30" shape="636.29,570.69 636.51,570.89"/>
        <lane id=":10725627685_0_2" index="2" disallow="tram rail_urban rail rail_electric rail_fast ship container cable_car subway aircraft wheelchair scooter drone" speed="16.67" length="0.30" shape="634.06,572.98 634.28,573.19"/>
    </edge>
    <edge id=":10727278286_0" function="internal">
        <lane id=":10727278286_0_0" index="0" disallow="tram rail_urban rail rail_electric rail_fast ship container cable_car subway aircraft wheelchair scooter drone" speed="27.78" length="0.10" shape="1076.57,693.68 1076.57,693.68"/>
        <lane id=":10727278286_0_1" index="1" disallow="tram rail_urban rail rail_electric rail_fast ship container cable_car subway aircraft wheelchair scooter drone" speed="27.78" length="0.10" shape="1078.73,696.04 1078.73,696.04"/>
        <lane id=":10727278286_0_2" index="2" disallow="tram rail_urban rail rail_electric rail_fast ship container cable_car subway aircraft wheelchair scooter drone" speed="27.78" length="0.10" shape="1080.89,698.40 1080.89,698.40"/>
    </edge>
    <edge id=":10727278293_0" function="internal">
        <lane id=":10727278293_0_0" index="0" disallow="tram rail_urban rail rail_electric rail_fast ship container cable_car subway aircraft wheelchair scooter drone" speed="27.78" length="0.30" shape="1061.60,707.40 1061.82,707.20"/>
        <lane id=":10727278293_0_1" index="1" disallow="tram rail_urban rail rail_electric rail_fast ship container cable_car subway aircraft wheelchair scooter drone" speed="27.78" length="0.30" shape="1063.76,709.76 1063.98,709.56"/>
        <lane id=":10727278293_0_2" index="2" disallow="tram rail_urban rail rail_electric rail_fast ship container cable_car subway aircraft wheelchair scooter drone" speed="27.78" length="0.30" shape="1065.92,712.12 1066.14,711.92"/>
    </edge>
    <edge id=":10727644824_0" function="internal">
        <lane id=":10727644824_0_0" index="0" disallow="tram rail_urban rail rail_electric rail_fast ship container cable_car subway aircraft wheelchair scooter drone" speed="27.78" length="0.30" shape="1304.08,569.10 1303.89,568.89"/>
        <lane id=":10727644824_0_1" index="1" disallow="tram rail_urban rail rail_electric rail_fast ship container cable_car subway aircraft wheelchair scooter drone" speed="27.78" length="0.30" shape="1306.42,566.92 1306.22,566.70"/>
        <lane id=":10727644824_0_2" index="2" disallow="tram rail_urban rail rail_electric rail_fast ship container cable_car subway aircraft wheelchair scooter drone" speed="27.78" length="0.30" shape="1308.77,564.74 1308.55,564.51"/>
    </edge>
    <edge id=":10811927859_0" function="internal">
        <lane id=":10811927859_0_0" index="0" disallow="tram rail_urban rail rail_electric rail_fast ship container cable_car subway aircraft wheelchair scooter drone" speed="22.22" length="5.04" shape="1526.77,718.68 1523.04,722.08"/>
    </edge>
    <edge id=":10811927859_1" function="internal">
        <lane id=":10811927859_1_0" index="0" disallow="tram rail_urban rail rail_electric rail_fast ship container cable_car subway aircraft wheelchair scooter drone" speed="22.22" length="5.04" shape="1520.89,719.72 1524.61,716.32"/>
    </edge>
    <edge id=":10811927861_0" function="internal">
        <lane id=":10811927861_0_0" index="0" disallow="tram rail_urban rail rail_electric rail_fast ship container cable_car subway aircraft wheelchair scooter drone" speed="27.78" length="5.14" shape="1444.82,719.74 1441.36,716.00"/>
        <lane id=":10811927861_0_1" index="1" disallow="tram rail_urban rail rail_electric rail_fast ship container cable_car subway aircraft wheelchair scooter drone" speed="27.78" length="5.14" shape="1447.18,717.58 1443.70,713.81"/>
        <lane id=":10811927861_0_2" index="2" disallow="tram rail_urban rail rail_electric rail_fast ship container cable_car subway aircraft wheelchair scooter drone" speed="27.78" length="5.14" shape="1449.55,715.43 1446.03,711.62"/>
    </edge>
    <edge id=":10823867802_0" function="internal">
        <lane id=":10823867802_0_0" index="0" disallow="tram rail_urban rail rail_electric rail_fast ship container cable_car subway aircraft wheelchair scooter drone" speed="27.78" length="0.30" shape="936.33,1229.73 936.13,1229.52"/>
        <lane id=":10823867802_0_1" index="1" disallow="tram rail_urban rail rail_electric rail_fast ship container cable_car subway aircraft wheelchair scooter drone" speed="27.78" length="0.30" shape="938.63,1227.51 938.43,1227.29"/>
        <lane id=":10823867802_0_2" index="2" disallow="tram rail_urban rail rail_electric rail_fast ship container cable_car subway aircraft wheelchair scooter drone" speed="27.78" length="0.30" shape="940.94,1225.28 940.73,1225.07"/>
    </edge>
    <edge id=":10823867804_0" function="internal">
        <lane id=":10823867804_0_0" index="0" disallow="tram rail_urban rail rail_electric rail_fast ship container cable_car subway aircraft wheelchair scooter drone" speed="27.78" length="0.30" shape="925.32,1218.35 925.11,1218.13"/>
        <lane id=":10823867804_0_1" index="1" disallow="tram rail_urban rail rail_electric rail_fast ship container cable_car subway aircraft wheelchair scooter drone" speed="27.78" length="0.30" shape="927.62,1216.13 927.42,1215.91"/>
        <lane id=":10823867804_0_2" index="2" disallow="tram rail_urban rail rail_electric rail_fast ship container cable_car subway aircraft wheelchair scooter drone" speed="27.78" length="0.30" shape="929.92,1213.90 929.72,1213.69"/>
    </edge>
    <edge id=":10836565770_0" function="internal">
        <lane id=":10836565770_0_0" index="0" disallow="tram rail_urban rail rail_electric rail_fast ship container cable_car subway aircraft wheelchair scooter drone" speed="3.65" length="4.67" shape="1440.89,1645.13 1440.71,1646.56 1440.18,1647.28 1439.28,1647.28 1438.03,1646.57"/>
    </edge>
    <edge id=":11041706040_0" function="internal">
        <lane id=":11041706040_0_0" index="0" disallow="tram rail_urban rail rail_electric rail_fast ship container cable_car subway aircraft wheelchair scooter drone" speed="22.22" length="0.30" shape="1212.38,1006.51 1212.16,1006.72"/>
    </edge>
    <edge id=":11041706040_1" function="internal">
        <lane id=":11041706040_1_0" index="0" disallow="tram rail_urban rail rail_electric rail_fast ship container cable_car subway aircraft wheelchair scooter drone" speed="22.22" length="0.30" shape="1210.00,1004.36 1210.22,1004.16"/>
    </edge>
    <edge id=":11187279715_0" function="internal">
        <lane id=":11187279715_0_0" index="0" disallow="tram rail_urban rail rail_electric rail_fast ship container cable_car subway aircraft wheelchair scooter drone" speed="22.22" length="0.10" shape="1239.24,981.77 1239.24,981.77"/>
    </edge>
    <edge id=":11187279715_1" function="internal">
        <lane id=":11187279715_1_0" index="0" disallow="tram rail_urban rail rail_electric rail_fast ship container cable_car subway aircraft wheelchair scooter drone" speed="22.22" length="0.10" shape="1237.08,979.41 1237.08,979.41"/>
    </edge>
    <edge id=":11187291229_0" function="internal">
        <lane id=":11187291229_0_0" index="0" disallow="tram rail_urban rail rail_electric rail_fast ship container cable_car subway aircraft wheelchair scooter drone" speed="27.78" length="0.30" shape="1347.03,1085.56 1347.27,1085.38"/>
    </edge>
    <edge id=":11309309104_0" function="internal">
        <lane id=":11309309104_0_0" index="0" disallow="tram rail_urban rail rail_electric rail_fast ship container cable_car subway aircraft wheelchair scooter drone" speed="22.22" length="0.10" shape="461.88,847.02 461.88,847.02"/>
    </edge>
    <edge id=":11309309104_1" function="internal">
        <lane id=":11309309104_1_0" index="0" disallow="tram rail_urban rail rail_electric rail_fast ship container cable_car subway aircraft wheelchair scooter drone" speed="22.22" length="0.10" shape="458.68,846.90 458.68,846.90"/>
    </edge>
    <edge id=":11333010757_0" function="internal">
        <lane id=":11333010757_0_0" index="0" disallow="tram rail_urban rail rail_electric rail_fast ship container cable_car subway aircraft wheelchair scooter drone" speed="3.65" length="4.67" shape="1490.60,1649.15 1489.16,1649.23 1488.36,1648.83 1488.20,1647.96 1488.68,1646.59"/>
    </edge>
    <edge id=":11364145943_0" function="internal">
        <lane id=":11364145943_0_0" index="0" disallow="tram rail_urban rail rail_electric rail_fast ship container cable_car subway aircraft wheelchair scooter drone" speed="27.78" length="6.69" shape="1477.46,1429.45 1482.08,1434.28"/>
        <lane id=":11364145943_0_1" index="1" disallow="tram rail_urban rail rail_electric rail_fast ship container cable_car subway aircraft wheelchair scooter drone" speed="27.78" length="6.69" shape="1475.15,1431.66 1479.77,1436.49"/>
        <lane id=":11364145943_0_2" index="2" disallow="tram rail_urban rail rail_electric rail_fast ship container cable_car subway aircraft wheelchair scooter drone" speed="27.78" length="6.69" shape="1472.84,1433.87 1477.45,1438.70"/>
    </edge>
    <edge id=":11364145943_3" function="internal">
        <lane id=":11364145943_3_0" index="0" disallow="tram rail_urban rail rail_electric rail_fast ship container cable_car subway aircraft wheelchair scooter drone" speed="7.24" length="7.88" shape="1471.28,1438.54 1474.40,1437.02 1476.85,1436.17 1478.64,1436.00 1479.77,1436.49"/>
        <lane id=":11364145943_3_1" index="1" disallow="tram rail_urban rail rail_electric rail_fast ship container cable_car subway aircraft wheelchair scooter drone" speed="6.30" length="7.88" shape="1471.28,1438.54 1473.16,1437.75 1474.81,1437.51 1476.24,1437.83 1477.45,1438.70"/>
    </edge>
    <edge id=":11383528099_0" function="internal">
        <lane id=":11383528099_0_0" index="0" disallow="tram rail_urban rail rail_electric rail_fast ship container cable_car subway aircraft wheelchair scooter drone" speed="13.89" length="0.10" shape="1108.85,1611.80 1108.85,1611.80"/>
    </edge>
    <edge id=":11383528099_1" function="internal">
        <lane id=":11383528099_1_0" index="0" disallow="tram rail_urban rail rail_electric rail_fast ship container cable_car subway aircraft wheelchair scooter drone" speed="13.89" length="0.10" shape="1107.55,1608.88 1107.55,1608.88"/>
    </edge>
    <edge id=":11395574631_0" function="internal">
        <lane id=":11395574631_0_0" index="0" disallow="tram rail_urban rail rail_electric rail_fast ship container cable_car subway aircraft wheelchair scooter drone" speed="16.67" length="0.30" shape="901.95,1051.92 901.73,1052.12"/>
        <lane id=":11395574631_0_1" index="1" disallow="tram rail_urban rail rail_electric rail_fast ship container cable_car subway aircraft wheelchair scooter drone" speed="16.67" length="0.30" shape="899.77,1049.58 899.55,1049.78"/>
        <lane id=":11395574631_0_2" index="2" disallow="tram rail_urban rail rail_electric rail_fast ship container cable_car subway aircraft wheelchair scooter drone" speed="16.67" length="0.30" shape="897.59,1047.23 897.37,1047.44"/>
    </edge>
    <edge id=":11431751688_0" function="internal">
        <lane id=":11431751688_0_0" index="0" disallow="tram rail_urban rail rail_electric rail_fast ship container cable_car subway aircraft wheelchair scooter drone" speed="22.22" length="0.30" shape="970.28,568.18 970.06,568.38"/>
    </edge>
    <edge id=":11431751688_1" function="internal">
        <lane id=":11431751688_1_0" index="0" disallow="tram rail_urban rail rail_electric rail_fast ship container cable_car subway aircraft wheelchair scooter drone" speed="22.22" length="0.30" shape="967.90,566.02 968.12,565.82"/>
    </edge>
    <edge id=":11431751691_0" function="internal">
        <lane id=":11431751691_0_0" index="0" disallow="tram rail_urban rail rail_electric rail_fast ship container cable_car subway aircraft wheelchair scooter drone" speed="13.89" length="0.10" shape="1000.83,460.12 1000.83,460.12"/>
    </edge>
    <edge id=":11494677838_0" function="internal">
        <lane id=":11494677838_0_0" index="0" disallow="tram rail_urban rail rail_electric rail_fast ship container cable_car subway aircraft wheelchair scooter drone" speed="27.78" length="5.25" shape="1527.10,755.74 1527.15,757.30 1527.15,758.36 1527.07,759.43 1526.89,760.98"/>
    </edge>
    <edge id=":11494677866_0" function="internal">
        <lane id=":11494677866_0_0" index="0" disallow="tram rail_urban rail rail_electric rail_fast ship container cable_car subway aircraft wheelchair scooter drone" speed="27.78" length="5.26" shape="1438.49,757.37 1438.45,755.81 1438.45,754.74 1438.54,753.68 1438.72,752.13"/>
    </edge>
    <edge id=":11494677867_0" function="internal">
        <lane id=":11494677867_0_0" index="0" disallow="tram rail_urban rail rail_electric rail_fast ship container cable_car subway aircraft wheelchair scooter drone" speed="27.78" length="5.25" shape="1482.14,712.63 1483.69,712.59 1484.76,712.60 1485.82,712.69 1487.37,712.87"/>
    </edge>
    <edge id=":11494719170_0" function="internal">
        <lane id=":11494719170_0_0" index="0" disallow="tram rail_urban rail rail_electric rail_fast ship container cable_car subway aircraft wheelchair scooter drone" speed="27.78" length="5.25" shape="1483.71,800.66 1482.15,800.72 1481.08,800.72 1480.02,800.64 1478.47,800.46"/>
    </edge>
    <edge id=":11777945117_0" function="internal">
        <lane id=":11777945117_0_0" index="0" disallow="tram rail_urban rail rail_electric rail_fast ship container cable_car subway aircraft wheelchair scooter drone" speed="13.89" length="0.44" shape="758.67,1516.19 758.61,1516.08 758.57,1516.00 758.53,1515.92 758.47,1515.80"/>
    </edge>
    <edge id=":11777945117_1" function="internal">
        <lane id=":11777945117_1_0" index="0" disallow="tram rail_urban rail rail_electric rail_fast ship container cable_car subway aircraft wheelchair scooter drone" speed="13.89" length="0.15" shape="761.38,1514.47 761.40,1514.51 761.42,1514.54 761.43,1514.56 761.45,1514.60"/>
    </edge>
    <edge id=":11853016827_0" function="internal">
        <lane id=":11853016827_0_0" index="0" disallow="tram rail_urban rail rail_electric rail_fast ship container cable_car subway aircraft wheelchair scooter drone" speed="13.89" length="0.10" shape="1031.27,1649.73 1031.27,1649.73"/>
    </edge>
    <edge id=":11853016827_1" function="internal">
        <lane id=":11853016827_1_0" index="0" disallow="tram rail_urban rail rail_electric rail_fast ship container cable_car subway aircraft wheelchair scooter drone" speed="13.89" length="0.10" shape="1029.93,1646.83 1029.93,1646.83"/>
    </edge>
    <edge id=":12181658670_0" function="internal">
        <lane id=":12181658670_0_0" index="0" disallow="tram rail_urban rail rail_electric rail_fast ship container cable_car subway aircraft wheelchair scooter drone" speed="27.78" length="5.98" shape="743.22,999.70 744.67,998.88 745.64,998.28 746.54,997.59 747.77,996.47"/>
        <lane id=":12181658670_0_1" index="1" disallow="tram rail_urban rail rail_electric rail_fast ship container cable_car subway aircraft wheelchair scooter drone" speed="27.78" length="5.98" shape="744.80,1002.48 746.44,1001.56 747.54,1000.87 748.56,1000.08 749.96,998.81"/>
    </edge>
    <edge id=":12181658671_0" function="internal">
        <lane id=":12181658671_0_0" index="0" disallow="tram rail_urban rail rail_electric rail_fast ship container cable_car subway aircraft wheelchair scooter drone" speed="27.78" length="1.65" shape="719.80,1013.38 721.02,1012.26"/>
        <lane id=":12181658671_0_1" index="1" disallow="tram rail_urban rail rail_electric rail_fast ship container cable_car subway aircraft wheelchair scooter drone" speed="27.78" length="1.65" shape="721.94,1015.75 723.17,1014.64"/>
        <lane id=":12181658671_0_2" index="2" disallow="tram rail_urban rail rail_electric rail_fast ship container cable_car subway aircraft wheelchair scooter drone" speed="27.78" length="1.65" shape="724.09,1018.12 725.31,1017.02"/>
    </edge>
    <edge id=":12181658672_0" function="internal">
        <lane id=":12181658672_0_0" index="0" disallow="tram rail_urban rail rail_electric rail_fast ship container cable_car subway aircraft wheelchair scooter drone" speed="27.78" length="1.68" shape="735.50,1027.75 734.29,1028.91"/>
        <lane id=":12181658672_0_1" index="1" disallow="tram rail_urban rail rail_electric rail_fast ship container cable_car subway aircraft wheelchair scooter drone" speed="27.78" length="1.68" shape="733.30,1025.43 732.08,1026.59"/>
        <lane id=":12181658672_0_2" index="2" disallow="tram rail_urban rail rail_electric rail_fast ship container cable_car subway aircraft wheelchair scooter drone" speed="27.78" length="1.68" shape="731.10,1023.11 729.88,1024.27"/>
    </edge>
    <edge id=":12181658673_0" function="internal">
        <lane id=":12181658673_0_0" index="0" disallow="tram rail_urban rail rail_electric rail_fast ship container cable_car subway aircraft wheelchair scooter drone" speed="5.68" length="6.58" shape="741.19,1030.01 739.40,1028.36 737.87,1027.41 736.62,1027.16 735.65,1027.61"/>
    </edge>
    <edge id=":12181658673_1" function="internal">
        <lane id=":12181658673_1_0" index="0" disallow="tram rail_urban rail rail_electric rail_fast ship container cable_car subway aircraft wheelchair scooter drone" speed="27.78" length="16.27" shape="743.49,1027.78 739.83,1024.72 736.83,1023.20 733.84,1021.68 730.18,1018.61"/>
        <lane id=":12181658673_1_1" index="1" disallow="tram rail_urban rail rail_electric rail_fast ship container cable_car subway aircraft wheelchair scooter drone" speed="27.78" length="16.27" shape="745.79,1025.56 742.13,1022.49 739.13,1020.97 736.14,1019.45 732.48,1016.39"/>
    </edge>
    <edge id=":12181658673_3" function="internal">
        <lane id=":12181658673_3_0" index="0" disallow="tram rail_urban rail rail_electric rail_fast ship container cable_car subway aircraft wheelchair scooter drone" speed="27.78" length="17.57" shape="747.21,1014.40 743.62,1018.17 741.43,1021.01 739.25,1023.85 735.65,1027.61"/>
        <lane id=":12181658673_3_1" index="1" disallow="tram rail_urban rail rail_electric rail_fast ship container cable_car subway aircraft wheelchair scooter drone" speed="27.78" length="17.57" shape="745.00,1012.08 741.41,1015.85 739.23,1018.69 737.04,1021.53 733.44,1025.29"/>
        <lane id=":12181658673_3_2" index="2" disallow="tram rail_urban rail rail_electric rail_fast ship container cable_car subway aircraft wheelchair scooter drone" speed="27.78" length="17.57" shape="745.00,1012.08 741.07,1015.49 738.13,1017.53 735.18,1019.57 731.24,1022.97"/>
    </edge>
    <edge id=":12181658673_6" function="internal">
        <lane id=":12181658673_6_0" index="0" disallow="tram rail_urban rail rail_electric rail_fast ship container cable_car subway aircraft wheelchair scooter drone" speed="8.11" length="14.54" shape="745.00,1012.08 740.96,1015.46 737.53,1017.30 734.70,1017.61 732.48,1016.39"/>
    </edge>
    <edge id=":12181658673_7" function="internal">
        <lane id=":12181658673_7_0" index="0" disallow="tram rail_urban rail rail_electric rail_fast ship container cable_car subway aircraft wheelchair scooter drone" speed="8.32" length="15.53" shape="737.08,1011.94 738.73,1014.71 738.67,1017.86 736.91,1021.39 733.44,1025.29"/>
        <lane id=":12181658673_7_1" index="1" disallow="tram rail_urban rail rail_electric rail_fast ship container cable_car subway aircraft wheelchair scooter drone" speed="6.93" length="10.44" shape="734.78,1014.16 735.59,1015.78 735.27,1017.79 733.82,1020.18 731.24,1022.97"/>
    </edge>
    <edge id=":12181658673_9" function="internal">
        <lane id=":12181658673_9_0" index="0" disallow="tram rail_urban rail rail_electric rail_fast ship container cable_car subway aircraft wheelchair scooter drone" speed="3.65" length="4.67" shape="734.78,1014.16 735.04,1015.58 734.74,1016.43 733.89,1016.69 732.48,1016.39"/>
    </edge>
    <edge id=":12181658674_0" function="internal">
        <lane id=":12181658674_0_0" index="0" disallow="tram rail_urban rail rail_electric rail_fast ship container cable_car subway aircraft wheelchair scooter drone" speed="27.78" length="5.19" shape="740.00,996.09 740.99,994.91 741.69,994.12 742.43,993.37 743.55,992.31"/>
    </edge>
    <edge id=":12405962686_0" function="internal">
        <lane id=":12405962686_0_0" index="0" disallow="tram rail_urban rail rail_electric rail_fast ship container cable_car subway aircraft wheelchair scooter drone" speed="16.67" length="0.10" shape="719.14,1217.18 719.14,1217.18"/>
        <lane id=":12405962686_0_1" index="1" disallow="tram rail_urban rail rail_electric rail_fast ship container cable_car subway aircraft wheelchair scooter drone" speed="16.67" length="0.10" shape="716.96,1214.84 716.96,1214.84"/>
        <lane id=":12405962686_0_2" index="2" disallow="tram rail_urban rail rail_electric rail_fast ship container cable_car subway aircraft wheelchair scooter drone" speed="16.67" length="0.10" shape="714.78,1212.50 714.78,1212.50"/>
    </edge>
    <edge id=":12447084683_0" function="internal">
        <lane id=":12447084683_0_0" index="0" disallow="tram rail_urban rail rail_electric rail_fast ship container cable_car subway aircraft wheelchair scooter drone" speed="27.78" length="5.76" shape="1233.40,1188.37 1232.25,1189.57 1231.74,1190.67 1231.24,1191.77 1230.10,1192.99"/>
        <lane id=":12447084683_0_1" index="1" disallow="tram rail_urban rail rail_electric rail_fast ship container cable_car subway aircraft wheelchair scooter drone" speed="27.78" length="5.76" shape="1233.40,1188.37 1231.94,1189.18 1230.75,1189.42 1229.56,1189.65 1228.12,1190.49"/>
    </edge>
    <edge id=":12447084685_0" function="internal">
        <lane id=":12447084685_0_0" index="0" disallow="tram rail_urban rail rail_electric rail_fast ship container cable_car subway aircraft wheelchair scooter drone" speed="27.78" length="6.81" shape="1224.22,1187.16 1225.60,1185.72 1226.26,1184.48 1226.92,1183.22 1228.29,1181.77"/>
    </edge>
    <edge id=":12485864205_0" function="internal">
        <lane id=":12485864205_0_0" index="0" disallow="tram rail_urban rail rail_electric rail_fast ship container cable_car subway aircraft wheelchair scooter drone" speed="13.89" length="0.10" shape="670.48,1328.86 670.48,1328.86"/>
    </edge>
    <edge id=":12485864205_1" function="internal">
        <lane id=":12485864205_1_0" index="0" disallow="tram rail_urban rail rail_electric rail_fast ship container cable_car subway aircraft wheelchair scooter drone" speed="13.89" length="0.10" shape="673.30,1327.34 673.30,1327.34"/>
    </edge>
    <edge id=":12506339688_0" function="internal">
        <lane id=":12506339688_0_0" index="0" disallow="tram rail_urban rail rail_electric rail_fast ship container cable_car subway aircraft wheelchair scooter drone" speed="27.78" length="0.30" shape="1075.16,1314.28 1074.94,1314.45"/>
        <lane id=":12506339688_0_1" index="1" disallow="tram rail_urban rail rail_electric rail_fast ship container cable_car subway aircraft wheelchair scooter drone" speed="27.78" length="0.30" shape="1073.21,1311.74 1072.97,1311.93"/>
    </edge>
    <edge id=":12606344449_0" function="internal">
        <lane id=":12606344449_0_0" index="0" disallow="tram rail_urban rail rail_electric rail_fast ship container cable_car subway aircraft wheelchair scooter drone" speed="27.78" length="0.31" shape="602.40,657.28 602.17,657.49"/>
    </edge>
    <edge id=":12606344449_1" function="internal">
        <lane id=":12606344449_1_0" index="0" disallow="tram rail_urban rail rail_electric rail_fast ship container cable_car subway aircraft wheelchair scooter drone" speed="27.78" length="0.25" shape="600.04,655.10 600.23,654.93"/>
    </edge>
    <edge id=":12609121278_0" function="internal">