<?xml version="1.0" encoding="UTF-8"?>

<!-- generated on 2026-01-20 16:36:09.640780 by randomTrips.py v1_24_0+0000-b72eb3fabc8
<configuration>
    <net-file value="D:\AfterGradEx\de_traffic_control\multi-junction-map.net.xml"/>
    <additional-files value="D:\AfterGradEx\de_traffic_control\hcmc_vtypes.xml"/>
    <output-trip-file value="D:\AfterGradEx\de_traffic_control\trips.trips.xml"/>
    <trip-attributes value="type=&quot;hcmc_fleet&quot;"/>
    <seed value="54"/>
    <period value="1.2"/>
</configuration>
-->

<!-- generated on 2026-01-20 16:36:09 by Eclipse SUMO duarouter Version 1.24.0
<duarouterConfiguration xmlns:xsi="http://www.w3.org/2001/XMLSchema-instance" xsi:noNamespaceSchemaLocation="http://sumo.dlr.de/xsd/duarouterConfiguration.xsd">

    <input>
        <net-file value="D:\AfterGradEx\de_traffic_control\multi-junction-map.net.xml"/>
        <additional-files value="D:\AfterGradEx\de_traffic_control\hcmc_vtypes.xml"/>
        <route-files value="D:\AfterGradEx\de_traffic_control\trips.trips.xml"/>
    </input>

    <output>
        <output-file value="routes.rou.xml"/>
        <alternatives-output value="NUL"/>
    </output>

    <time>
        <begin value="0.0"/>
        <end value="3600.0"/>
    </time>

    <report>
        <no-warnings value="true"/>
        <ignore-errors value="true"/>
        <no-step-log value="true"/>
    </report>

</duarouterConfiguration>
-->

<routes xmlns:xsi="http://www.w3.org/2001/XMLSchema-instance" xsi:noNamespaceSchemaLocation="http://sumo.dlr.de/xsd/routes_file.xsd">
    <vehicle id="0" type="car" depart="0.00">
        <route edges="694973742#2 694973742#3 -694973742#3 -694973742#2 -694973742#1 -694973742#0 408246393#5 408246393#6 408246393#7 1275903827 327074920 1267462152#0 1267462152#1 1422795956 1422795957 408153725#0 408153725#1 408153725#2 408153725#3 408153725#4 408153725#5 408153725#6 408153725#7 408153725#8 35112688#0 -35112688#0"/>
    </vehicle>
    <vehicle id="1" type="motorbike" depart="1.20">
        <route edges="193092901 1423071620#0 216956827 817095789#2 1225422629#0 1225422629#1 193092895#0 193092895#1 193092895#2 1275903827 327074920 1267462152#0 1267462152#1 1345417676#0 1345417676#1 1345417676#2 1345417676#3 1345417677#0"/>
    </vehicle>
    <vehicle id="2" type="motorbike" depart="2.40">
        <route edges="1267462153#5 35115167#0 35115167#1 35115167#2 35115167#3 35115167#4 35115167#5 326849849 326849848 220216393 193092895#0 193092895#1 205311563#1 205311563#2"/>
    </vehicle>
    <vehicle id="3" type="motorbike" depart="3.60">
        <route edges="1198467816#1 1265822568#0 1265822568#1 1265822568#2 1265822568#3 1265822568#4 1265822568#5 1464602837 1221994726#0 1221994726#1 1422795955 1345417676#0 1345417676#1 1345417676#2 1345417676#3 -306641038#1 -306641038#0 -673254417#6 -673254417#5 -673254417#4 -673254417#3 -673254417#2 673254417#2 673254417#3 673254417#4 673254417#5 673254417#6"/>
    </vehicle>
    <vehicle id="4" type="motorbike" depart="4.80">
        <route edges="658328100#1 658328100#2 658328100#3 408246393#6 408246393#7 1275903827 327074920 1267462152#0 35112848#0 35112848#1 35112848#2 35112848#3 35112848#4"/>
    </vehicle>
    <vehicle id="5" type="motorbike" depart="6.00">
        <route edges="193092895#1 193092895#2 193092894#0 193092894#1 193092894#2 220216393 220216407#0 220216407#1 220216407#2"/>
    </vehicle>
    <vehicle id="6" type="motorbike" depart="7.20">
        <route edges="193092894#1 193092894#2 220216393 193092895#0 193092895#1 193092895#2 1275903827 327074920 1267462152#0 1267462152#1 1422795956 1422795957 1422795958 1422795954 1464602836#0 1464602836#1 1200728225#0 1200728225#1 1200728225#2 1163556238#0 1163556238#1 1163556238#2 1163556238#3 1163556238#4 1431332944#0"/>
    </vehicle>
    <vehicle id="7" type="motorbike" depart="8.40">
        <route edges="747226803#4 747226803#5 747226803#6 35113306#0 35113306#1 35113196#0 35113196#1 747226804#0 747226804#1 747226804#2 747226804#3 747226804#4 747226804#5 747226804#6 747226804#7 747226804#8 747226804#9 -747226804#9 -747226804#8 -747226804#7 -747226804#6 -747226804#5 -747226804#4 -747226804#3 -747226804#2 -747226804#1 -747226804#0"/>
    </vehicle>
    <vehicle id="8" type="motorbike" depart="9.60">
        <route edges="-35112688#2 -35112688#1 761183343#1 761183343#2 227739781#2 227739781#3 227739782#0 227739782#1 227739782#2 35114617#0 35114617#1 35114617#2 35114617#3 35114617#4 1349944981#0 1349944981#1 599651252 -306641038#1 -306641038#0 1267653586#0 1267653586#1 -35113196#1 -35113196#0 1267462154#0 1267462154#1 928038825#0 928038825#1 928038825#2 928038825#3"/>
    </vehicle>
    <vehicle id="9" type="motorbike" depart="10.80">
        <route edges="-673254417#4 -673254417#3 -673254417#2 747226803#2 747226803#3 747226803#4 747226803#5 747226803#6 35113306#0 35113306#1 35113196#0 35113196#1 747226804#0 747226804#1 747226804#2 747226804#3 747226804#4 747226804#5 747226804#6 747226804#7 747226804#8 747226804#9 -747226804#9 -747226804#8 -747226804#7 -747226804#6 -747226804#5 -747226804#4 -747226804#3"/>
    </vehicle>
    <vehicle id="10" type="motorbike" depart="12.00">
        <route edges="1267462153#1 1267462153#2 1267462153#3 1267462153#4 1267462153#5 35115167#0 35115167#1 35115167#2 35115167#3 35115167#4 35115167#5 326849849 326849848 220216393 193092895#0 193092895#1 205311563#1 658328100#5"/>
    </vehicle>
    <vehicle id="11" type="motorbike" depart="13.20">
        <route edges="1198467815#2 1198467815#3 1198467816#0 1198467816#1 1265822568#0 1265822568#1 1265822568#2 1265822568#3 1265822568#4 1265822568#5 1464602837 1267462159#0 1267462159#1 1267462159#2 -1267462153#5 -1267462153#4 -1267462153#3 -1267462153#2 -1267462153#1 -1267462153#0 -747226804#9 -747226804#8 -747226804#7 -747226804#6 -747226804#5 -747226804#4 -747226804#3 -747226804#2 -747226804#1 -747226804#0 -35113196#1 -35113196#0 1267462154#0 1267462154#1 1267462155#0 1267462155#1 -1162554504#2"/>
    </vehicle>
    <vehicle id="12" type="motorbike" depart="14.40">
        <route edges="-1163556238#3 -1163556238#2 -1163556238#1 -1163556238#0 1464602838 1267462159#0 1267462159#1 1267462159#2 35115167#0 35115167#1 35115167#2 35115167#3 35115167#4 35115167#5 326849849 326849848 220216393 193092895#0 193092895#1 193092895#2 193616433#0 193616433#1 193616433#2 193616433#3 35113721#0 35113721#1 658328100#2"/>
    </vehicle>
    <vehicle id="13" type="motorbike" depart="15.60">
        <route edges="35113280#1 -35113280#1 -35113280#0 -1268111174#2 -1268111174#1 -1268111174#0 -35112843 -1431332946#1 -1431332946#0 1163559039 -1431332944#1 -1431332944#0 -1163556238#4 -1163556238#3 -1163556238#2 -1163556238#1 -1163556238#0 1464602838 1221994726#0 1221994726#1 1422795955 1422795956 1422795957 408153725#0 408153725#1 408153725#2 408153725#3 408153725#4 408153725#5 408153725#6 408153725#7 408153725#8 35112688#0 -35112688#0"/>
    </vehicle>
    <vehicle id="14" type="motorbike" depart="16.80">
        <route edges="-658328100#1 -658328100#0 658328100#0 658328100#1 658328100#2 658328100#3 408246393#6 408246393#7 1275903827 327074920 1267462152#0 1267462152#1 1422795956 1422795957 408153725#0 408153725#1 408153725#2 408153725#3 408153725#4 408153725#5 408153725#6 408153725#7 408153725#8 35112688#0 761183343#1 761183343#2"/>
    </vehicle>
    <vehicle id="15" type="motorbike" depart="18.00">
        <route edges="35112688#1 35112688#2 35112688#3 1165024356 -1165024356 -35112688#3 -35112688#2 -35112688#1 761183343#1 761183343#2 227739781#2 227739781#3 227739782#0 227739782#1 227739782#2 35114617#0 35114617#1 35114617#2 35114617#3 35114617#4 1349944981#0 1349944981#1 599651252 1345417677#0 1345417677#1 1422795958 1422795954 1464602836#0 1464602836#1 1464602837 1267462159#0"/>
    </vehicle>
    <vehicle id="16" type="motorbike" depart="19.20">
        <route edges="205311563#2 205311563#3 -35114553#0 1177457985#0 1177457985#1 216956826 220216411#0 220216411#1 220216411#2 220216411#3 220216411#4 220216411#5 220216411#6 220216411#7 817095789#2"/>
    </vehicle>
    <vehicle id="17" type="car" depart="20.40">
        <route edges="-658328100#0 658328100#0 658328100#1 658328100#2 658328100#3 408246393#6 408246393#7 1275903827 326770986#0 326770986#1 326770986#2 306072864#0 306072864#1 306072864#2 306072864#3 -818455176#1 -818455176#0 -1268111174#2 -1268111174#1 -1268111174#0 -35112843 1431332946#2 225372720#0 225372720#1 225372720#2 225372720#3 225372720#4 225372720#5"/>
    </vehicle>
    <vehicle id="18" type="motorbike" depart="21.60">
        <route edges="-1163556238#1 -1163556238#0 1464602838 1221994726#0 1221994726#1 1422795955 1345417676#0 1345417676#1 1345417676#2 1345417676#3 1345417677#0 1345417677#1"/>
    </vehicle>
    <vehicle id="19" type="motorbike" depart="22.80">
        <route edges="-609372150#0 1198467815#1 1198467815#2 1198467815#3 1198467816#0 1198467816#1 -35114931#3 -35114931#2 -35114931#1 -35114931#0 1052021444#0 1052021444#1 1052021444#2 1176121083 1184944358 1184945391 35113579#0 35113579#1 1163556239"/>
    </vehicle>
    <vehicle id="20" type="motorbike" depart="24.00">
        <route edges="1221994726#0 1221994726#1 1422795955 1345417676#0 1345417676#1 1345417676#2 1345417676#3 -306641038#1 -306641038#0 1267653586#0 1267653586#1 1267653586#2 1267653586#3 1184372243 1267138238#0 1267138238#1"/>
    </vehicle>
    <vehicle id="21" type="motorbike" depart="25.20">
        <route edges="673254417#1 747226803#2 747226803#3 747226803#4 747226803#5 747226803#6 35113306#0 35113306#1 1267462154#0 1267462154#1 928038825#0 928038825#1 928038825#2 928038825#3 1177450263#0 1177450263#1 1184372244"/>
    </vehicle>
    <vehicle id="22" type="motorbike" depart="26.40">
        <route edges="-1163556238#3 -1163556238#2 -1163556238#1 -1163556238#0 1464602838 1221994726#0 1221994726#1 1422795955 1422795956 1422795957 408153725#0 408153725#1 408153725#2 408153725#3 408153725#4 408153725#5"/>
    </vehicle>
    <vehicle id="23" type="motorbike" depart="27.60">
        <route edges="747226803#1 673254417#2 673254417#3 673254417#4 673254417#5 673254417#6 306641038#0 306641038#1 1345417677#0 1345417677#1 408153725#0 408153725#1 408153725#2 408153725#3 408153725#4 408153725#5 408153725#6 408153725#7"/>
    </vehicle>
    <vehicle id="24" type="car" depart="28.80">
        <route edges="-747226804#7 -747226804#6 -747226804#5 -747226804#4 -747226804#3 -747226804#2 -747226804#1 -747226804#0 1267653586#2 1056903939 747226805#0 747226805#1 747226805#2 326770986#0 326770986#1 326770986#2 326849849 326849848 220216393 220216407#0 220216407#1 220216407#2 1267006216#0 1267006216#1 1177457985#0 1177457985#1 1177457984"/>
    </vehicle>
    <vehicle id="25" type="car" depart="30.00">
        <route edges="35114150#3 35114150#4 1163556238#2 1163556238#3 1163556238#4 1431332944#0 1431332944#1 1431332947 1431332946#0 1431332946#1 -1431332946#1"/>
    </vehicle>
    <vehicle id="26" type="car" depart="31.20">
        <route edges="-1267462153#5 -1267462153#4 -1267462153#3 -1267462153#2 -1267462153#1 -1267462153#0 1267462152#0 1267462152#1 1422795956 1422795957 1422795958"/>
    </vehicle>
    <vehicle id="27" type="motorbike" depart="32.40">
        <route edges="-35114931#3 -35114931#2 -35114931#1 -35114931#0 1052021444#0 1052021444#1 1052021444#2 1176121083 1184944358 1184945391 35113579#0 35113579#1 1163556239 1431332944#0 1431332944#1 1431332947 1431332946#0 1431332946#1 35112843 1268111174#0"/>
    </vehicle>
    <vehicle id="28" type="motorbike" depart="33.60">
        <route edges="-35112848#4 -35112848#3 -35112848#2 35113205 -1267462153#0 -747226804#9 -747226804#8 -747226804#7 -747226804#6 -747226804#5 -747226804#4 -747226804#3 -747226804#2 -747226804#1 -747226804#0 747226804#0 747226804#1 747226804#2 747226804#3 747226804#4 747226804#5 747226804#6 747226804#7 747226804#8"/>
    </vehicle>
    <vehicle id="29" type="motorbike" depart="34.80">
        <route edges="1422795953 1464602836#0 1464602836#1 1200728225#0 1200728225#1 1200728225#2 1163556238#0 1163556238#1 -35114150#4 -35114150#3 -35114150#2 -35114150#1 -35114150#0 1052021444#0 1052021444#1 1052021444#2 1176121083"/>
    </vehicle>
    <vehicle id="30" type="motorbike" depart="36.00">
        <route edges="-761183343#2 -761183343#1 761183343#1 761183343#2 227739781#2 227739781#3 227739782#0 227739782#1 227739782#2 35114617#0 35114617#1 35114617#2 35114617#3 35114617#4 1349944981#0 1349944981#1 599651252 -306641038#1 -306641038#0 1267653586#0 1267653586#1 747226804#0 747226804#1 747226804#2 747226804#3 747226804#4 747226804#5 747226804#6 747226804#7 747226804#8 747226804#9 -747226804#9 -747226804#8 -747226804#7 -747226804#6 -747226804#5 -747226804#4 -747226804#3 -747226804#2 -747226804#1"/>
    </vehicle>
    <vehicle id="31" type="motorbike" depart="37.20">
        <route edges="35114617#0 35114617#1 35114617#2 35114617#3"/>
    </vehicle>
    <vehicle id="32" type="motorbike" depart="38.40">
        <route edges="35114617#4 1349944981#0 1349944981#1 599651252 -306641038#1 -306641038#0 -673254417#6 -673254417#5 -673254417#4 -673254417#3 -673254417#2 747226803#2"/>
    </vehicle>
    <vehicle id="33" type="motorbike" depart="39.60">
        <route edges="220216411#2 220216411#3 220216411#4 220216411#5 220216411#6 220216411#7 817095789#2 1225422629#0 1225422629#1 193092895#0 193092895#1 193092895#2 1275903827 327074920 1267462152#0 1267462152#1 1422795956 1422795957 1422795958 1422795954 1464602836#0 1464602836#1 1200728225#0"/>
    </vehicle>
    <vehicle id="34" type="bus" depart="40.80">
        <route edges="1267006216#0 1267006216#1 35114553#0 35114553#1 35114553#2 35114553#3 408246393#5 408246393#6 408246393#7 1275903827 327074920 1267462152#0 1267462152#1 1345417676#0 1345417676#1 1345417676#2 1345417676#3 -306641038#1 -306641038#0"/>
    </vehicle>
    <vehicle id="35" type="motorbike" depart="42.00">
        <route edges="1184944358 1184945391 35113579#0 35113579#1 1163556239 -1163556238#4 -1163556238#3 -1163556238#2 -1163556238#1 -1163556238#0 1464602838 1221994726#0 1221994726#1 1422795955 1345417676#0 1345417676#1 1345417676#2 1345417676#3 1345417677#0 1345417677#1"/>
    </vehicle>
    <vehicle id="36" type="motorbike" depart="43.20">
        <route edges="599651252 1345417677#0 1345417677#1 1422795958 1422795954 1464602836#0 1464602836#1 1464602837 1267462159#0 1267462159#1 1267462159#2 35115167#0 35115167#1 35115167#2 35115167#3 35115167#4 35115167#5 326849849 326849848 220216393 193092895#0 193092895#1 205311563#1 205311563#2"/>
    </vehicle>
    <vehicle id="37" type="motorbike" depart="44.40">
        <route edges="-220216393 220216393 193092895#0 193092895#1 193092895#2 1275903827 327074920 1267462152#0 1267462152#1 1422795956 1422795957 1422795958 1422795954 1464602836#0 1464602836#1 1200728225#0 1200728225#1 1200728225#2 1464602838"/>
    </vehicle>
    <vehicle id="38" type="motorbike" depart="45.60">
        <route edges="1163556238#3 1163556238#4 -1163556239 -35113579#1 -35113579#0 -1184945391 -1184944358 -1176121083 -1052021444#2 -1052021444#1 -1052021444#0 35114931#0 35114931#1"/>
    </vehicle>
    <vehicle id="39" type="motorbike" depart="46.80">
        <route edges="408153725#9 35113641 761183343#0 761183343#1 761183343#2 227739781#2 227739781#3 227739782#0 227739782#1 227739782#2 35114617#0 35114617#1 35114617#2 35114617#3 35114617#4 1349944981#0 1349944981#1 599651252 1345417677#0 1345417677#1 1422795958 1422795954 1464602836#0 1464602836#1 1464602837 1267462159#0 1267462159#1 1267462159#2 35115167#0 35115167#1 35115167#2 35115167#3 35115167#4 35115167#5 326849849 326849848 220216393 220216407#0 220216407#1"/>
    </vehicle>
    <vehicle id="40" type="motorbike" depart="48.00">
        <route edges="302854713#2 193092894#0 193092894#1 193092894#2 220216393 220216407#0 220216407#1 220216407#2 1267006216#0"/>
    </vehicle>
    <vehicle id="41" type="bus" depart="49.20">
        <route edges="-747226804#1 -747226804#0 747226804#0 747226804#1 747226804#2 747226804#3 747226804#4 747226804#5 747226804#6 747226804#7 747226804#8 747226804#9 1267462152#0 1267462152#1 1422795956 1422795957 1422795958 1422795954 1464602836#0 1464602836#1 1200728225#0 1200728225#1 1200728225#2 1163556238#0 1163556238#1 -35114150#4 -35114150#3 -35114150#2 -35114150#1 -35114150#0 35114931#0"/>
    </vehicle>
    <vehicle id="42" type="motorbike" depart="50.40">
        <route edges="35114553#1 35114553#2 35114553#3 408246393#5 408246393#6 408246393#7 193616433#0"/>
    </vehicle>
    <vehicle id="43" type="motorbike" depart="51.60">
        <route edges="747226803#4 747226803#5 747226803#6 35113306#0 35113306#1 35113196#0 35113196#1 747226804#0 747226804#1 747226804#2 747226804#3 747226804#4 747226804#5 747226804#6 747226804#7 747226804#8 747226804#9 1267462153#0 1267462153#1 1267462153#2 1267462153#3 1267462153#4 1267462153#5 35115167#0 35115167#1 35115167#2 35115167#3"/>
    </vehicle>
    <vehicle id="44" type="motorbike" depart="52.80">
        <route edges="35112688#0 761183343#1 761183343#2 227739781#2 227739781#3 227739782#0 227739782#1 227739782#2 35114617#0 35114617#1 35114617#2 35114617#3 35114617#4 1349944981#0 1349944981#1 599651252 1345417677#0 1345417677#1 1422795958 1422795954 1464602836#0 1464602836#1 1464602837 1267462159#0 1267462159#1 1267462159#2 35115167#0 35115167#1 35115167#2 35115167#3 35115167#4 35115167#5 326849849 326849848 1225422630#0 1225422630#1 1423071620#0 216956827 -220216411#7 -220216411#6 -220216411#5 -220216411#4 -220216411#3 -220216411#2"/>
    </vehicle>
    <vehicle id="45" type="motorbike" depart="54.00">
        <route edges="747226805#0 747226805#1 747226805#2 326770986#0 326770986#1 326770986#2 326849849 326849848 1225422630#0 1225422630#1 1423071620#0 216956827 -220216411#7 -220216411#6 -220216411#5 -220216411#4 -220216411#3 -220216411#2 -213339440"/>
    </vehicle>
    <vehicle id="46" type="motorbike" depart="55.20">
        <route edges="-35113878 761183343#0 761183343#1 761183343#2 227739781#2 227739781#3 227739782#0 227739782#1 227739782#2 35114617#0 35114617#1 35114617#2 35114617#3 35114617#4 1349944981#0 1349944981#1 599651252 1345417677#0 1345417677#1 1422795958 1422795954 1464602836#0 1464602836#1 1200728225#0 1200728225#1 1200728225#2 1163556238#0 1163556238#1 1163556238#2 1163556238#3 1163556238#4 1431332944#0 1431332944#1 1431332947 1431332946#0 1431332946#1 1431332946#2 225372720#0 225372720#1 -225372720#1"/>
    </vehicle>
    <vehicle id="47" type="car" depart="56.40">
        <route edges="-35113579#0 -1184945391 -1184944358 -1176121083 -1052021444#2 -1052021444#1 -1052021444#0 35114150#0 35114150#1 35114150#2 35114150#3 35114150#4 -1163556238#1 -1163556238#0 1464602838 1221994726#0 1221994726#1 1422795955 1422795956 1422795957 408153725#0 408153725#1 408153725#2 408153725#3 408153725#4 408153725#5 408153725#6 408153725#7 408153725#8 35112688#0"/>
    </vehicle>
    <vehicle id="48" type="motorbike" depart="57.60">
        <route edges="-35114150#0 35114150#0 35114150#1 35114150#2 35114150#3 35114150#4 -1163556238#1 -1163556238#0 1464602838 1221994726#0 1221994726#1 1422795955 1422795956 1422795957 408153725#0 408153725#1 408153725#2 408153725#3 408153725#4 408153725#5 408153725#6 408153725#7 408153725#8 408153725#9 35113641"/>
    </vehicle>
    <vehicle id="49" type="motorbike" depart="58.80">
        <route edges="1052021444#1 1052021444#2 1176121083 1184944358 1184945391 35113579#0 35113579#1 1163556239 -1163556238#4 -1163556238#3 -1163556238#2 -1163556238#1 -1163556238#0 1464602838 1267462159#0 1267462159#1 1267462159#2 35115167#0 35115167#1 35115167#2 35115167#3 35115167#4 35115167#5 326849849 326849848 220216393 220216407#0 220216407#1 220216407#2 1267006216#0 1267006216#1 35114553#0 35114553#1 35114553#2 35114553#3 -35114553#3"/>
    </vehicle>
    <vehicle id="50" type="motorbike" depart="60.00">
        <route edges="35115167#1 35115167#2 35115167#3 35115167#4 35115167#5 326849849 326849848 220216393 193092895#0 193092895#1 193092895#2 1275903827 327074920 1267462152#0 1267462152#1 1345417676#0 1345417676#1 1345417676#2 1345417676#3 -306641038#1 -306641038#0 -673254417#6"/>
    </vehicle>
    <vehicle id="51" type="motorbike" depart="61.20">
        <route edges="-205311563#1 193092895#2 1275903827 327074920 1267462152#0 1267462152#1 1422795956 1422795957 1422795958 1422795954 1464602836#0 1464602836#1 1200728225#0 1200728225#1 1200728225#2 1163556238#0 1163556238#1 1163556238#2 1163556238#3 1163556238#4 1431332944#0 1431332944#1 1431332947 1431332946#0"/>
    </vehicle>
    <vehicle id="52" type="motorbike" depart="62.40">
        <route edges="35113579#0 35113579#1 1163556239 -1163556239 -35113579#1 -35113579#0 -1184945391 -1184944358 -1176121083 -1052021444#2 -1052021444#1"/>
    </vehicle>
    <vehicle id="53" type="car" depart="63.60">
        <route edges="608262688#1 749986989 747226800 326849846#0 326849846#1 1056903939 747226805#0 747226805#1 747226805#2 326770986#0 326770986#1 326770986#2 306072864#0 306072864#1 306072864#2 306072864#3 -818455176#1 -818455176#0 -1268111174#2 -1268111174#1 -1268111174#0 -35112843 35112843 1268111174#0 1268111174#1 1268111174#2"/>
    </vehicle>
    <vehicle id="54" type="bus" depart="64.80">
        <route edges="1163556238#4 -1163556238#4 -1163556238#3 -1163556238#2 1163556238#2 1163556238#3"/>
    </vehicle>
    <vehicle id="55" type="motorbike" depart="66.00">
        <route edges="-1431332946#0 1431332946#0 1431332946#1 35112843 1268111174#0 1268111174#1 1268111174#2 818455176#0 818455176#1 221915358 1423071619 216956827 -220216411#7 -220216411#6 -220216411#5 -220216411#4 -220216411#3 -220216411#2 -220216411#1 -220216411#0 554450141 -1177457984 -1177457985#1"/>
    </vehicle>
    <vehicle id="56" type="motorbike" depart="67.20">
        <route edges="1422795956 1422795957 1422795958 1422795954 -1422795953 1422795953"/>
    </vehicle>
    <vehicle id="57" type="motorbike" depart="68.40">
        <route edges="-35112848#3 -35112848#2 35113205 1267462153#1 1267462153#2 1267462153#3 1267462153#4 1267462153#5 35115167#0 35115167#1 35115167#2 35115167#3 35115167#4 35115167#5 326849849 326849848 1225422630#0 1225422630#1 1423071620#0 216956827 -220216411#7 -220216411#6"/>
    </vehicle>
    <vehicle id="58" type="motorbike" depart="69.60">
        <route edges="1267462153#5 35115167#0 35115167#1 35115167#2 35115167#3 35115167#4 35115167#5 326849849 326849848 220216393 220216407#0 220216407#1 220216407#2 1267006216#0 1267006216#1 35114553#0 35114553#1 35114553#2 35114553#3 694973742#0 694973742#1 694973742#2"/>
    </vehicle>
    <vehicle id="59" type="bus" depart="70.80">
        <route edges="-1267462153#4 -1267462153#3 -1267462153#2 -1267462153#1 -1267462153#0 1267462152#0 1267462152#1 1345417676#0 1345417676#1 1345417676#2 1345417676#3 -306641038#1 -306641038#0 306641038#0"/>
    </vehicle>
    <vehicle id="60" type="motorbike" depart="72.00">
        <route edges="747226803#5 747226803#6 35113306#0 35113306#1 35113196#0 35113196#1 747226804#0 747226804#1 747226804#2 747226804#3 747226804#4 747226804#5 747226804#6 747226804#7 747226804#8 747226804#9 1267462152#0 1267462152#1 1422795956 1422795957 408153725#0 408153725#1 408153725#2 408153725#3 408153725#4 408153725#5 408153725#6 408153725#7 408153725#8 35112688#0 761183343#1 761183343#2 -761183343#2"/>
    </vehicle>
    <vehicle id="61" type="motorbike" depart="73.20">
        <route edges="1198467815#0 1198467815#1 1198467815#2 1198467815#3 1198467816#0 1198467816#1 1265822568#0 1265822568#1 1265822568#2 1265822568#3 1265822568#4 1265822568#5 1464602837 1267462159#0 1267462159#1 1267462159#2 35115167#0 35115167#1 35115167#2 35115167#3 35115167#4 35115167#5 326849849 326849848 220216393 193092895#0 193092895#1 193092895#2"/>
    </vehicle>
    <vehicle id="62" type="motorbike" depart="74.40">
        <route edges="-599651252 599651252 1345417677#0 1345417677#1 1422795958 1422795954 1464602836#0 1464602836#1 1200728225#0 1200728225#1 1200728225#2 1163556238#0 1163556238#1 1163556238#2 1163556238#3 1163556238#4 -1163556239 -35113579#1 -35113579#0 -1184945391 -1184944358 -1176121083"/>
    </vehicle>
    <vehicle id="63" type="motorbike" depart="75.60">
        <route edges="-35112843 -1431332946#1 -1431332946#0 1163559039 -1431332944#1 -1431332944#0 -1163556238#4 -1163556238#3 -1163556238#2 -1163556238#1 -1163556238#0 1464602838 1267462159#0 1267462159#1 1267462159#2 35115167#0 35115167#1 35115167#2 35115167#3 35115167#4 35115167#5 326849849 326849848 220216393 193092895#0 193092895#1 193092895#2 193616433#0 193616433#1 193616433#2 193616433#3 35113721#0 35113721#1 658328100#2"/>
    </vehicle>
    <vehicle id="64" type="motorbike" depart="76.80">
        <route edges="-35113205 35112848#2 35112848#3 35112848#4 35112848#5 1267462159#1 1267462159#2 35115167#0 35115167#1 35115167#2 35115167#3 35115167#4 35115167#5 326849849 326849848 220216393 193092895#0 193092895#1 193092895#2 193616433#0 193616433#1 193616433#2 193616433#3 35113721#0 35113721#1 35113721#2"/>
    </vehicle>
    <vehicle id="65" type="motorbike" depart="78.00">
        <route edges="-35114931#1 -35114931#0 35114150#0 35114150#1 35114150#2 35114150#3 35114150#4 -1163556238#1 -1163556238#0 1464602838 1267462159#0 1267462159#1 1267462159#2 35115167#0 35115167#1 35115167#2 35115167#3 35115167#4 35115167#5 326849849 326849848 220216393 193092895#0 193092895#1 193092895#2 193616433#0 193616433#1 193616433#2 193616433#3 193616433#4 193616433#5 193616433#6 1184372243"/>
    </vehicle>
    <vehicle id="66" type="car" depart="79.20">
        <route edges="35113721#1 -35113721#1 -35113721#0 193616433#4 193616433#5 193616433#6 608262688#0 608262688#1 749986989 747226800 326849846#0 928038825#2 928038825#3"/>
    </vehicle>
    <vehicle id="67" type="motorbike" depart="80.40">
        <route edges="818455176#1 -818455176#1 -818455176#0 -1268111174#2 -1268111174#1 -1268111174#0 -35112843 -1431332946#1 -1431332946#0 1163559039 -1431332944#1 -1431332944#0 -1163556239 -35113579#1 -35113579#0 -1184945391 -1184944358 -1176121083 -1052021444#2 -1052021444#1 -1052021444#0 35114931#0 35114931#1"/>
    </vehicle>
    <vehicle id="68" type="motorbike" depart="81.60">
        <route edges="35113196#1 747226804#0 747226804#1 747226804#2 747226804#3 747226804#4 747226804#5 747226804#6 747226804#7 747226804#8 747226804#9 -747226804#9 -747226804#8 -747226804#7 -747226804#6 -747226804#5 -747226804#4 -747226804#3 -747226804#2 -747226804#1 -747226804#0"/>
    </vehicle>
    <vehicle id="69" type="bus" depart="82.80">
        <route edges="193092895#2 1275903827 327074920 1267462152#0 1267462152#1 1422795956 1422795957 1422795958 1422795954 1464602836#0 1464602836#1 1200728225#0 1200728225#1 1200728225#2 1163556238#0"/>
    </vehicle>
    <vehicle id="70" type="motorbike" depart="84.00">
        <route edges="326849846#1 1267653586#3 1184372243 658328100#0 658328100#1 35113721#2 35113721#3 -694973742#1 -694973742#0 -35114553#3 -35114553#2 -35114553#1 -35114553#0"/>
    </vehicle>
    <vehicle id="71" type="motorbike" depart="85.20">
        <route edges="-1163556238#0 1464602838 1221994726#0 1221994726#1 1422795955 1345417676#0 1345417676#1 1345417676#2 1345417676#3 -306641038#1 -306641038#0 -673254417#6 -673254417#5 -673254417#4"/>
    </vehicle>
    <vehicle id="72" type="motorbike" depart="86.40">
        <route edges="1345417677#1 1422795958 1422795954 1464602836#0 1464602836#1 1464602837 1267462159#0 1267462159#1 1267462159#2 35115167#0 35115167#1 35115167#2 35115167#3 35115167#4 35115167#5 306072864#0 306072864#1 306072864#2 306072864#3 -818455176#1 -818455176#0 -1268111174#2 -1268111174#1 -1268111174#0"/>
    </vehicle>
    <vehicle id="73" type="motorbike" depart="87.60">
        <route edges="35113205 -1267462153#0 1267462152#0 1267462152#1 1422795956 1422795957 408153725#0 408153725#1 408153725#2 408153725#3 408153725#4 408153725#5 408153725#6 408153725#7 408153725#8 408153725#9 35113641 35113878"/>
    </vehicle>
    <vehicle id="74" type="motorbike" depart="88.80">
        <route edges="330378030#1 599651252 1345417677#0 1345417677#1 1422795958 1422795954 1464602836#0 1464602836#1 1464602837 1267462159#0 1267462159#1 1267462159#2 35115167#0 35115167#1 35115167#2 35115167#3 35115167#4 35115167#5 326849849 326849848 1225422630#0 1225422630#1 1423071620#0"/>
    </vehicle>
    <vehicle id="75" type="motorbike" depart="90.00">
        <route edges="749986989 747226800 326849846#0 326849846#1 1056903939 747226805#0 747226805#1 747226805#2 327074920 1267462152#0 35112848#0 35112848#1 35112848#2 35112848#3 35112848#4 35112848#5 1267462159#1 1267462159#2"/>
    </vehicle>
    <vehicle id="76" type="motorbike" depart="91.20">
        <route edges="1198467815#0 1198467815#1 1198467815#2 1198467815#3 227739781#0 227739781#1 227739781#2 227739781#3 227739781#4 408153725#6"/>
    </vehicle>
    <vehicle id="77" type="motorbike" depart="92.40">
        <route edges="216956827 817095789#2 1225422629#0 1225422629#1 302854713#0 302854713#1 302854713#2 193092894#0 193092894#1"/>
    </vehicle>
    <vehicle id="78" type="motorbike" depart="93.60">
        <route edges="1267462153#0 -35113205 -35112848#1 -35112848#0 1267462152#1 1422795956 1422795957 1422795958 1422795954 1464602836#0 1464602836#1 1200728225#0 1200728225#1 1200728225#2 1163556238#0 1163556238#1 -35114150#4 -35114150#3"/>
    </vehicle>
    <vehicle id="79" type="motorbike" depart="94.80">
        <route edges="-694973742#0 408246393#5 408246393#6 408246393#7 1275903827 327074920 1267462152#0 1267462152#1 1422795956 1422795957 1422795958 1422795954 -1422795953 1221994726#1"/>
    </vehicle>
    <vehicle id="80" type="motorbike" depart="96.00">