<?xml version="1.0" encoding="UTF-8"?>

<!-- generated on 2025-11-04 20:08:08.940345 by randomTrips.py v1_24_0+0000-b72eb3fabc8
<configuration>
    <net-file value="D:\AfterGradEx\de_traffic_control\map.net.xml"/>
    <additional-files value="D:\AfterGradEx\de_traffic_control\hcmc_vtypes.xml"/>
    <output-trip-file value="D:\AfterGradEx\de_traffic_control\trips_rush_8.trips.xml"/>
    <trip-attributes value="type=&quot;hcmc_fleet&quot;"/>
    <begin value="14400.0"/>
    <end value="16200.0"/>
    <period value="2.0"/>
</configuration>
-->

<!-- generated on 2025-11-04 20:08:08 by Eclipse SUMO duarouter Version 1.24.0
<duarouterConfiguration xmlns:xsi="http://www.w3.org/2001/XMLSchema-instance" xsi:noNamespaceSchemaLocation="http://sumo.dlr.de/xsd/duarouterConfiguration.xsd">

    <input>
        <net-file value="D:\AfterGradEx\de_traffic_control\map.net.xml"/>
        <additional-files value="D:\AfterGradEx\de_traffic_control\hcmc_vtypes.xml"/>
        <route-files value="D:\AfterGradEx\de_traffic_control\trips_rush_8.trips.xml"/>
    </input>

    <output>
        <output-file value="routes.rou.xml"/>
        <alternatives-output value="NUL"/>
    </output>

    <time>
        <begin value="14400.0"/>
        <end value="16200.0"/>
    </time>

    <report>
        <no-warnings value="true"/>
        <ignore-errors value="true"/>
        <no-step-log value="true"/>
    </report>

</duarouterConfiguration>
-->

<routes xmlns:xsi="http://www.w3.org/2001/XMLSchema-instance" xsi:noNamespaceSchemaLocation="http://sumo.dlr.de/xsd/routes_file.xsd">
    <vType id="car" length="4.50" minGap="2.50" maxSpeed="15.00" probability="0.15" vClass="passenger" width="1.80" accel="1.5" decel="4.5" sigma="0.5"/>
    <vehicle id="0" type="car" depart="14400.00">
        <route edges="1265822568#1 1265822568#2 1265822568#3 1200728225#2 1200728225#3 1200728225#4 1163556238#1"/>
    </vehicle>
    <vType id="motorbike" length="1.80" minGap="1.00" maxSpeed="18.00" probability="0.85" vClass="motorcycle" width="0.80" lcStrategic="1.0" lcCooperative="0.5" lcSpeedGain="1.0" accel="2.5" decel="4.0" sigma="0.3"/>
    <vehicle id="1" type="motorbike" depart="14402.00">
        <route edges="1200728225#2 1200728225#3 1200728225#4 1221994726#0 1221994726#1"/>
    </vehicle>
    <vehicle id="2" type="motorbike" depart="14404.00">
        <route edges="1265822568#1 1265822568#2 1265822568#3 1221994726#1 1221994726#2"/>
    </vehicle>
    <vehicle id="3" type="motorbike" depart="14406.00">
        <route edges="1200728225#2 1200728225#3 1200728225#4 1221994726#0 1221994726#1 1221994726#2"/>
    </vehicle>
    <vehicle id="4" type="motorbike" depart="14408.00">
        <route edges="1422795954 1200728225#0 1200728225#1 1200728225#2 1200728225#3 1200728225#4"/>
    </vehicle>
    <vehicle id="5" type="motorbike" depart="14410.00">
        <route edges="1200728225#0"/>
    </vehicle>
    <vehicle id="6" type="motorbike" depart="14412.00">
        <route edges="1265822568#0 1265822568#1 1265822568#2 1265822568#3 1267462159#1 1267462159#2 1267462159#3"/>
    </vehicle>
    <vehicle id="7" type="motorbike" depart="14414.00">
        <route edges="1200728225#4 1221994726#0 1221994726#1 1221994726#2"/>
    </vehicle>
    <vehicle id="8" type="motorbike" depart="14416.00">
        <route edges="1265822568#2 1265822568#3 1200728225#2 1200728225#3 1200728225#4 1163556238#1"/>
    </vehicle>
    <vehicle id="9" type="motorbike" depart="14418.00">
        <route edges="1200728225#2 1200728225#3"/>
    </vehicle>
    <vehicle id="10" type="motorbike" depart="14420.00">
        <route edges="1200728225#0 1200728225#1 1200728225#2"/>
    </vehicle>
    <vehicle id="11" type="motorbike" depart="14422.00">
        <route edges="1200728225#0 1200728225#1 1200728225#2 1200728225#3"/>
    </vehicle>
    <vehicle id="12" type="motorbike" depart="14424.00">
        <route edges="1265822568#1 1265822568#2 1265822568#3 1200728225#2 1200728225#3 1200728225#4"/>
    </vehicle>
    <vehicle id="13" type="motorbike" depart="14426.00">
        <route edges="1200728225#3 1200728225#4 1221994726#0 1267462159#1 1267462159#2 1267462159#3"/>
    </vehicle>
    <vehicle id="14" type="motorbike" depart="14428.00">
        <route edges="1265822568#1"/>
    </vehicle>
    <vehicle id="15" type="motorbike" depart="14430.00">
        <route edges="1200728225#1 1200728225#2 1200728225#3 1200728225#4"/>
    </vehicle>
    <vehicle id="16" type="motorbike" depart="14432.00">
        <route edges="1265822568#0 1265822568#1 1265822568#2"/>
    </vehicle>
    <vehicle id="17" type="car" depart="14434.00">
        <route edges="1200728225#2 1200728225#3 1200728225#4 1163556238#1"/>
    </vehicle>
    <vehicle id="18" type="motorbike" depart="14436.00">
        <route edges="1200728225#3"/>
    </vehicle>
    <vehicle id="19" type="motorbike" depart="14438.00">
        <route edges="1200728225#2 1200728225#3 1200728225#4 1221994726#0 1267462159#1 1267462159#2 1267462159#3"/>
    </vehicle>
    <vehicle id="20" type="motorbike" depart="14440.00">
        <route edges="1265822568#1 1265822568#2 1265822568#3 1200728225#2 1200728225#3 1200728225#4"/>
    </vehicle>
    <vehicle id="21" type="motorbike" depart="14442.00">
        <route edges="1200728225#2"/>
    </vehicle>
    <vehicle id="22" type="motorbike" depart="14444.00">
        <route edges="1265822568#0 1265822568#1 1265822568#2 1265822568#3 1200728225#2"/>
    </vehicle>
    <vehicle id="23" type="motorbike" depart="14446.00">
        <route edges="1265822568#0 1265822568#1 1265822568#2 1265822568#3 1267462159#1 1267462159#2"/>
    </vehicle>
    <vehicle id="24" type="car" depart="14448.00">
        <route edges="1422795954 1200728225#0 1200728225#1 1221994726#1"/>
    </vehicle>
    <vehicle id="25" type="motorbike" depart="14450.00">
        <route edges="1200728225#0 1200728225#1 1200728225#2 1200728225#3 1200728225#4 1163556238#1"/>
    </vehicle>
    <vehicle id="26" type="car" depart="14452.00">
        <route edges="1265822568#3 1200728225#2 1200728225#3 1200728225#4 1221994726#0"/>
    </vehicle>
    <vehicle id="27" type="motorbike" depart="14454.00">
        <route edges="1422795954 1200728225#0 1200728225#1 1221994726#1"/>
    </vehicle>
    <vehicle id="28" type="motorbike" depart="14456.00">
        <route edges="1422795954 1200728225#0 1200728225#1 1267462159#1"/>
    </vehicle>
    <vehicle id="29" type="motorbike" depart="14458.00">
        <route edges="1265822568#2 1265822568#3 1221994726#1 1221994726#2"/>
    </vehicle>
    <vehicle id="30" type="motorbike" depart="14460.00">
        <route edges="1200728225#0 1200728225#1 1200728225#2 1200728225#3 1200728225#4 1221994726#0"/>
    </vehicle>
    <vehicle id="31" type="motorbike" depart="14462.00">
        <route edges="1221994726#0 1267462159#1 1267462159#2 1267462159#3"/>
    </vehicle>
    <vehicle id="32" type="motorbike" depart="14464.00">
        <route edges="1267462159#2"/>
    </vehicle>
    <vehicle id="33" type="motorbike" depart="14466.00">
        <route edges="1265822568#3 1221994726#1 1221994726#2"/>
    </vehicle>
    <vehicle id="34" type="car" depart="14468.00">
        <route edges="1265822568#3 1221994726#1"/>
    </vehicle>
    <vehicle id="35" type="motorbike" depart="14470.00">
        <route edges="-1163556238#1 1221994726#0 1267462159#1 1267462159#2"/>
    </vehicle>
    <vehicle id="36" type="motorbike" depart="14472.00">
        <route edges="1200728225#3 1200728225#4 1163556238#1"/>
    </vehicle>
    <vehicle id="37" type="motorbike" depart="14474.00">
        <route edges="1267462159#2 1267462159#3"/>
    </vehicle>
    <vehicle id="38" type="motorbike" depart="14476.00">
        <route edges="1200728225#0 1200728225#1 1221994726#1"/>
    </vehicle>
    <vehicle id="39" type="motorbike" depart="14478.00">
        <route edges="1221994726#1 1221994726#2"/>
    </vehicle>
    <vehicle id="40" type="motorbike" depart="14480.00">
        <route edges="1200728225#2 1200728225#3 1200728225#4 1221994726#0 1267462159#1 1267462159#2"/>
    </vehicle>
    <vehicle id="41" type="car" depart="14482.00">
        <route edges="1265822568#0 1265822568#1 1265822568#2"/>
    </vehicle>
    <vehicle id="42" type="motorbike" depart="14484.00">
        <route edges="1200728225#2 1200728225#3"/>
    </vehicle>
    <vehicle id="43" type="motorbike" depart="14486.00">
        <route edges="1221994726#0 1221994726#1"/>
    </vehicle>
    <vehicle id="44" type="motorbike" depart="14488.00">
        <route edges="1200728225#0 1200728225#1 1200728225#2"/>
    </vehicle>
    <vehicle id="45" type="motorbike" depart="14490.00">
        <route edges="1200728225#4 1221994726#0 1221994726#1 1221994726#2"/>
    </vehicle>
    <vehicle id="46" type="motorbike" depart="14492.00">
        <route edges="1200728225#2"/>
    </vehicle>
    <vehicle id="47" type="motorbike" depart="14494.00">
        <route edges="1200728225#2 1200728225#3 1200728225#4 1221994726#0 1267462159#1 1267462159#2"/>
    </vehicle>
    <vehicle id="48" type="motorbike" depart="14496.00">
        <route edges="1422795954 1200728225#0 1200728225#1 1221994726#1 1221994726#2"/>
    </vehicle>
    <vehicle id="49" type="motorbike" depart="14498.00">
        <route edges="1200728225#0 1200728225#1 1200728225#2 1200728225#3 1200728225#4 1221994726#0"/>
    </vehicle>
    <vehicle id="50" type="motorbike" depart="14500.00">
        <route edges="1221994726#0 1221994726#1"/>
    </vehicle>
    <vehicle id="51" type="motorbike" depart="14502.00">
        <route edges="1265822568#2"/>
    </vehicle>
    <vehicle id="52" type="motorbike" depart="14504.00">
        <route edges="1422795954 1200728225#0"/>
    </vehicle>
    <vehicle id="53" type="car" depart="14506.00">
        <route edges="1200728225#1 1200728225#2 1200728225#3 1200728225#4 1221994726#0"/>
    </vehicle>
    <vehicle id="54" type="car" depart="14508.00">
        <route edges="1200728225#2 1200728225#3 1200728225#4 1221994726#0 1267462159#1 1267462159#2"/>
    </vehicle>
    <vehicle id="55" type="motorbike" depart="14510.00">
        <route edges="1221994726#0 1267462159#1"/>
    </vehicle>
    <vehicle id="56" type="motorbike" depart="14512.00">
        <route edges="1265822568#0 1265822568#1 1265822568#2 1265822568#3 1200728225#2 1200728225#3 1200728225#4 1163556238#1"/>
    </vehicle>
    <vehicle id="57" type="motorbike" depart="14514.00">
        <route edges="1422795954 1200728225#0 1200728225#1 1267462159#1"/>
    </vehicle>
    <vehicle id="58" type="motorbike" depart="14516.00">
        <route edges="1422795954 1200728225#0 1200728225#1 1267462159#1 1267462159#2"/>
    </vehicle>
    <vehicle id="59" type="car" depart="14518.00">
        <route edges="1200728225#4 1221994726#0 1267462159#1 1267462159#2 1267462159#3"/>
    </vehicle>
    <vehicle id="60" type="motorbike" depart="14520.00">
        <route edges="1221994726#0"/>
    </vehicle>
    <vehicle id="61" type="motorbike" depart="14522.00">
        <route edges="1422795954 1200728225#0 1200728225#1 1267462159#1 1267462159#2 1267462159#3"/>
    </vehicle>
    <vehicle id="62" type="motorbike" depart="14524.00">
        <route edges="1265822568#0 1265822568#1 1265822568#2"/>
    </vehicle>
    <vehicle id="63" type="motorbike" depart="14526.00">
        <route edges="1200728225#1 1200728225#2 1200728225#3"/>
    </vehicle>
    <vehicle id="64" type="motorbike" depart="14528.00">
        <route edges="1422795954 1200728225#0 1200728225#1 1221994726#1 1221994726#2"/>
    </vehicle>
    <vehicle id="65" type="motorbike" depart="14530.00">
        <route edges="1265822568#0 1265822568#1 1265822568#2 1265822568#3"/>
    </vehicle>
    <vehicle id="66" type="car" depart="14532.00">
        <route edges="-1163556238#1 1221994726#0 1221994726#1 1221994726#2"/>
    </vehicle>
    <vehicle id="67" type="motorbike" depart="14534.00">
        <route edges="1200728225#1 1267462159#1 1267462159#2 1267462159#3"/>
    </vehicle>
    <vehicle id="68" type="motorbike" depart="14536.00">
        <route edges="1200728225#0 1200728225#1"/>
    </vehicle>
    <vehicle id="69" type="car" depart="14538.00">
        <route edges="1265822568#0 1265822568#1 1265822568#2"/>
    </vehicle>
    <vehicle id="70" type="motorbike" depart="14540.00">
        <route edges="1265822568#0 1265822568#1"/>
    </vehicle>
    <vehicle id="71" type="motorbike" depart="14542.00">
        <route edges="1221994726#0 1221994726#1 1221994726#2"/>
    </vehicle>
    <vehicle id="72" type="motorbike" depart="14544.00">
        <route edges="1200728225#2 1200728225#3 1200728225#4"/>
    </vehicle>
    <vehicle id="73" type="motorbike" depart="14546.00">
        <route edges="1265822568#2 1265822568#3 1200728225#2 1200728225#3"/>
    </vehicle>
    <vehicle id="74" type="motorbike" depart="14548.00">
        <route edges="1200728225#0 1200728225#1 1200728225#2 1200728225#3 1200728225#4 1221994726#0"/>
    </vehicle>
    <vehicle id="75" type="motorbike" depart="14550.00">
        <route edges="1422795954 1200728225#0 1200728225#1 1267462159#1 1267462159#2 1267462159#3"/>
    </vehicle>
    <vehicle id="76" type="motorbike" depart="14552.00">
        <route edges="1200728225#0 1200728225#1 1200728225#2"/>
    </vehicle>
    <vehicle id="77" type="motorbike" depart="14554.00">
        <route edges="1200728225#2 1200728225#3 1200728225#4 1221994726#0 1267462159#1 1267462159#2"/>
    </vehicle>
    <vehicle id="78" type="motorbike" depart="14556.00">
        <route edges="1267462159#2"/>
    </vehicle>
    <vehicle id="79" type="motorbike" depart="14558.00">
        <route edges="1265822568#1 1265822568#2 1265822568#3 1267462159#1 1267462159#2 1267462159#3"/>
    </vehicle>
    <vehicle id="80" type="motorbike" depart="14560.00">
        <route edges="1265822568#1 1265822568#2 1265822568#3 1200728225#2 1200728225#3 1200728225#4 1163556238#1"/>
    </vehicle>
    <vehicle id="81" type="motorbike" depart="14562.00">
        <route edges="1265822568#1 1265822568#2 1265822568#3 1267462159#1 1267462159#2 1267462159#3"/>
    </vehicle>
    <vehicle id="82" type="motorbike" depart="14564.00">
        <route edges="1200728225#0 1200728225#1 1221994726#1 1221994726#2"/>
    </vehicle>
    <vehicle id="83" type="motorbike" depart="14566.00">
        <route edges="1265822568#2 1265822568#3 1200728225#2"/>
    </vehicle>
    <vehicle id="84" type="motorbike" depart="14568.00">
        <route edges="1265822568#1 1265822568#2 1265822568#3 1200728225#2"/>
    </vehicle>
    <vehicle id="85" type="motorbike" depart="14570.00">
        <route edges="1265822568#1 1265822568#2 1265822568#3 1200728225#2"/>
    </vehicle>
    <vehicle id="86" type="motorbike" depart="14572.00">
        <route edges="1265822568#3 1221994726#1 1221994726#2"/>
    </vehicle>
    <vehicle id="87" type="motorbike" depart="14574.00">
        <route edges="1200728225#0 1200728225#1 1267462159#1 1267462159#2"/>
    </vehicle>
    <vehicle id="88" type="motorbike" depart="14576.00">
        <route edges="1200728225#3 1200728225#4 1221994726#0 1267462159#1 1267462159#2"/>
    </vehicle>
    <vehicle id="89" type="motorbike" depart="14578.00">
        <route edges="1265822568#3 1267462159#1"/>
    </vehicle>
    <vehicle id="90" type="motorbike" depart="14580.00">
        <route edges="1265822568#3 1267462159#1 1267462159#2"/>
    </vehicle>
    <vehicle id="91" type="car" depart="14582.00">
        <route edges="1200728225#1 1267462159#1 1267462159#2"/>
    </vehicle>
    <vehicle id="92" type="motorbike" depart="14584.00">
        <route edges="1267462159#1 1267462159#2 1267462159#3"/>
    </vehicle>
    <vehicle id="93" type="motorbike" depart="14586.00">
        <route edges="1267462159#1 1267462159#2"/>
    </vehicle>
    <vehicle id="94" type="motorbike" depart="14588.00">
        <route edges="1200728225#3 1200728225#4 1221994726#0 1267462159#1 1267462159#2"/>
    </vehicle>
    <vehicle id="95" type="car" depart="14590.00">
        <route edges="1267462159#1"/>
    </vehicle>
    <vehicle id="96" type="motorbike" depart="14592.00">
        <route edges="1200728225#2 1200728225#3 1200728225#4 1221994726#0 1267462159#1"/>
    </vehicle>
    <vehicle id="97" type="car" depart="14594.00">
        <route edges="1265822568#3 1200728225#2"/>
    </vehicle>
    <vehicle id="98" type="motorbike" depart="14596.00">
        <route edges="1200728225#3 1200728225#4 1221994726#0 1267462159#1"/>
    </vehicle>
    <vehicle id="99" type="motorbike" depart="14598.00">
        <route edges="1422795954 1200728225#0 1200728225#1 1200728225#2 1200728225#3"/>
    </vehicle>
    <vehicle id="100" type="motorbike" depart="14600.00">
        <route edges="1265822568#1 1265822568#2 1265822568#3 1200728225#2 1200728225#3 1200728225#4"/>
    </vehicle>
    <vehicle id="101" type="motorbike" depart="14602.00">
        <route edges="1422795954 1200728225#0 1200728225#1 1221994726#1 1221994726#2"/>
    </vehicle>
    <vehicle id="102" type="car" depart="14604.00">
        <route edges="1422795954 1200728225#0"/>
    </vehicle>
    <vehicle id="103" type="motorbike" depart="14606.00">
        <route edges="1422795954 1200728225#0 1200728225#1"/>
    </vehicle>
    <vehicle id="104" type="car" depart="14608.00">
        <route edges="1422795954 1200728225#0 1200728225#1 1200728225#2"/>
    </vehicle>
    <vehicle id="105" type="motorbike" depart="14610.00">
        <route edges="1200728225#0 1200728225#1 1200728225#2 1200728225#3 1200728225#4 1221994726#0"/>
    </vehicle>
    <vehicle id="106" type="motorbike" depart="14612.00">
        <route edges="1265822568#2 1265822568#3 1200728225#2 1200728225#3"/>
    </vehicle>
    <vehicle id="107" type="motorbike" depart="14614.00">
        <route edges="1265822568#1 1265822568#2 1265822568#3 1221994726#1"/>
    </vehicle>
    <vehicle id="108" type="motorbike" depart="14616.00">
        <route edges="1200728225#4 1221994726#0 1221994726#1 1221994726#2"/>
    </vehicle>
    <vehicle id="109" type="motorbike" depart="14618.00">
        <route edges="-1163556238#1 1221994726#0 1267462159#1 1267462159#2"/>
    </vehicle>
    <vehicle id="110" type="motorbike" depart="14620.00">
        <route edges="1265822568#0 1265822568#1 1265822568#2"/>
    </vehicle>
    <vehicle id="111" type="motorbike" depart="14622.00">
        <route edges="1265822568#1 1265822568#2 1265822568#3 1200728225#2 1200728225#3"/>
    </vehicle>
    <vehicle id="112" type="motorbike" depart="14624.00">
        <route edges="1200728225#3 1200728225#4 1221994726#0 1267462159#1"/>
    </vehicle>
    <vehicle id="113" type="motorbike" depart="14626.00">
        <route edges="1265822568#2 1265822568#3 1200728225#2 1200728225#3"/>
    </vehicle>
    <vehicle id="114" type="motorbike" depart="14628.00">
        <route edges="1200728225#3 1200728225#4 1221994726#0"/>
    </vehicle>
    <vehicle id="115" type="motorbike" depart="14630.00">
        <route edges="1200728225#0 1200728225#1 1200728225#2 1200728225#3 1200728225#4 1221994726#0"/>
    </vehicle>
    <vehicle id="116" type="motorbike" depart="14632.00">
        <route edges="1200728225#3 1200728225#4 1221994726#0 1221994726#1 1221994726#2"/>
    </vehicle>
    <vehicle id="117" type="motorbike" depart="14634.00">
        <route edges="1221994726#0 1221994726#1 1221994726#2"/>
    </vehicle>
    <vehicle id="118" type="car" depart="14636.00">
        <route edges="1265822568#1 1265822568#2 1265822568#3 1200728225#2 1200728225#3 1200728225#4 1221994726#0"/>
    </vehicle>
    <vehicle id="119" type="motorbike" depart="14638.00">
        <route edges="1200728225#0 1200728225#1 1221994726#1"/>
    </vehicle>
    <vehicle id="120" type="motorbike" depart="14640.00">
        <route edges="1265822568#1 1265822568#2 1265822568#3 1200728225#2 1200728225#3 1200728225#4"/>
    </vehicle>
    <vehicle id="121" type="motorbike" depart="14642.00">
        <route edges="1265822568#2 1265822568#3 1200728225#2"/>
    </vehicle>
    <vehicle id="122" type="motorbike" depart="14644.00">
        <route edges="1200728225#1 1200728225#2 1200728225#3 1200728225#4 1163556238#1"/>
    </vehicle>
    <vehicle id="123" type="motorbike" depart="14646.00">
        <route edges="1200728225#2 1200728225#3 1200728225#4 1221994726#0 1221994726#1"/>
    </vehicle>
    <vehicle id="124" type="car" depart="14648.00">
        <route edges="1265822568#1 1265822568#2 1265822568#3 1200728225#2 1200728225#3 1200728225#4 1163556238#1"/>
    </vehicle>
    <vehicle id="125" type="motorbike" depart="14650.00">
        <route edges="1265822568#3"/>
    </vehicle>
    <vehicle id="126" type="motorbike" depart="14652.00">
        <route edges="1200728225#0 1200728225#1 1200728225#2 1200728225#3 1200728225#4 1221994726#0"/>
    </vehicle>
    <vehicle id="127" type="car" depart="14654.00">
        <route edges="1200728225#1 1267462159#1 1267462159#2 1267462159#3"/>
    </vehicle>
    <vehicle id="128" type="motorbike" depart="14656.00">
        <route edges="1200728225#2 1200728225#3 1200728225#4 1221994726#0 1267462159#1"/>
    </vehicle>
    <vehicle id="129" type="motorbike" depart="14658.00">
        <route edges="1221994726#0 1267462159#1"/>
    </vehicle>
    <vehicle id="130" type="motorbike" depart="14660.00">
        <route edges="1265822568#2 1265822568#3 1267462159#1 1267462159#2 1267462159#3"/>
    </vehicle>
    <vehicle id="131" type="motorbike" depart="14662.00">
        <route edges="1265822568#0 1265822568#1 1265822568#2 1265822568#3 1267462159#1 1267462159#2 1267462159#3"/>
    </vehicle>
    <vehicle id="132" type="motorbike" depart="14664.00">
        <route edges="1265822568#2 1265822568#3 1221994726#1"/>
    </vehicle>
    <vehicle id="133" type="motorbike" depart="14666.00">
        <route edges="1265822568#3 1221994726#1"/>
    </vehicle>
    <vehicle id="134" type="motorbike" depart="14668.00">
        <route edges="1265822568#1 1265822568#2 1265822568#3 1200728225#2 1200728225#3"/>
    </vehicle>
    <vehicle id="135" type="motorbike" depart="14670.00">
        <route edges="1200728225#0 1200728225#1 1200728225#2 1200728225#3"/>
    </vehicle>
    <vehicle id="136" type="motorbike" depart="14672.00">
        <route edges="1200728225#3"/>
    </vehicle>
    <vehicle id="137" type="motorbike" depart="14674.00">
        <route edges="1265822568#2 1265822568#3 1200728225#2 1200728225#3 1200728225#4 1163556238#1"/>
    </vehicle>
    <vehicle id="138" type="car" depart="14676.00">
        <route edges="1221994726#0 1221994726#1 1221994726#2"/>
    </vehicle>
    <vehicle id="139" type="motorbike" depart="14678.00">
        <route edges="1221994726#0 1267462159#1 1267462159#2"/>
    </vehicle>
    <vehicle id="140" type="motorbike" depart="14680.00">
        <route edges="1265822568#0 1265822568#1 1265822568#2"/>
    </vehicle>
    <vehicle id="141" type="car" depart="14682.00">
        <route edges="1200728225#4 1163556238#1"/>
    </vehicle>
    <vehicle id="142" type="motorbike" depart="14684.00">
        <route edges="1267462159#1 1267462159#2 1267462159#3"/>
    </vehicle>
    <vehicle id="143" type="motorbike" depart="14686.00">
        <route edges="1265822568#0 1265822568#1"/>
    </vehicle>
    <vehicle id="144" type="car" depart="14688.00">
        <route edges="1200728225#2"/>
    </vehicle>
    <vehicle id="145" type="car" depart="14690.00">
        <route edges="1265822568#1 1265822568#2 1265822568#3 1200728225#2 1200728225#3 1200728225#4 1163556238#1"/>
    </vehicle>
    <vehicle id="146" type="motorbike" depart="14692.00">
        <route edges="1200728225#4 1221994726#0 1221994726#1 1221994726#2"/>
    </vehicle>
    <vehicle id="147" type="car" depart="14694.00">
        <route edges="1200728225#1 1200728225#2 1200728225#3 1200728225#4 1221994726#0"/>
    </vehicle>
    <vehicle id="148" type="motorbike" depart="14696.00">
        <route edges="1200728225#2 1200728225#3"/>
    </vehicle>
    <vehicle id="149" type="motorbike" depart="14698.00">
        <route edges="1265822568#3 1200728225#2 1200728225#3 1200728225#4"/>
    </vehicle>
    <vehicle id="150" type="motorbike" depart="14700.00">
        <route edges="1265822568#3 1267462159#1"/>
    </vehicle>
    <vehicle id="151" type="motorbike" depart="14702.00">
        <route edges="-1163556238#1 1221994726#0 1221994726#1 1221994726#2"/>
    </vehicle>
    <vehicle id="152" type="motorbike" depart="14704.00">
        <route edges="1422795954 1200728225#0 1200728225#1 1200728225#2 1200728225#3 1200728225#4"/>
    </vehicle>
    <vehicle id="153" type="motorbike" depart="14706.00">
        <route edges="1265822568#1 1265822568#2 1265822568#3"/>
    </vehicle>
    <vehicle id="154" type="motorbike" depart="14708.00">
        <route edges="1265822568#1 1265822568#2 1265822568#3"/>
    </vehicle>
    <vehicle id="155" type="car" depart="14710.00">
        <route edges="1422795954 1200728225#0 1200728225#1"/>
    </vehicle>
    <vehicle id="156" type="motorbike" depart="14712.00">
        <route edges="1265822568#0 1265822568#1 1265822568#2 1265822568#3 1200728225#2"/>
    </vehicle>
    <vehicle id="157" type="motorbike" depart="14714.00">
        <route edges="1265822568#2 1265822568#3"/>
    </vehicle>
    <vehicle id="158" type="car" depart="14716.00">
        <route edges="1267462159#1 1267462159#2 1267462159#3"/>
    </vehicle>
    <vehicle id="159" type="motorbike" depart="14718.00">
        <route edges="1200728225#0 1200728225#1 1200728225#2 1200728225#3 1200728225#4 1163556238#1"/>
    </vehicle>
    <vehicle id="160" type="motorbike" depart="14720.00">
        <route edges="1422795954 1200728225#0 1200728225#1 1200728225#2 1200728225#3 1200728225#4"/>
    </vehicle>
    <vehicle id="161" type="car" depart="14722.00">
        <route edges="1200728225#0 1200728225#1 1267462159#1 1267462159#2 1267462159#3"/>
    </vehicle>
    <vehicle id="162" type="motorbike" depart="14724.00">
        <route edges="1265822568#3 1200728225#2 1200728225#3 1200728225#4"/>
    </vehicle>
    <vehicle id="163" type="motorbike" depart="14726.00">
        <route edges="1267462159#1"/>
    </vehicle>
    <vehicle id="164" type="car" depart="14728.00">
        <route edges="1200728225#0 1200728225#1 1267462159#1 1267462159#2 1267462159#3"/>
    </vehicle>
    <vehicle id="165" type="motorbike" depart="14730.00">
        <route edges="1265822568#1 1265822568#2 1265822568#3 1267462159#1"/>
    </vehicle>
    <vehicle id="166" type="car" depart="14732.00">
        <route edges="1265822568#2 1265822568#3 1200728225#2 1200728225#3 1200728225#4 1221994726#0"/>
    </vehicle>
    <vehicle id="167" type="motorbike" depart="14734.00">
        <route edges="1265822568#3 1267462159#1 1267462159#2 1267462159#3"/>
    </vehicle>
    <vehicle id="168" type="motorbike" depart="14736.00">
        <route edges="1200728225#3 1200728225#4 1221994726#0 1267462159#1"/>
    </vehicle>
    <vehicle id="169" type="motorbike" depart="14738.00">
        <route edges="1265822568#0 1265822568#1 1265822568#2 1265822568#3 1221994726#1"/>
    </vehicle>
    <vehicle id="170" type="motorbike" depart="14740.00">
        <route edges="1200728225#3 1200728225#4 1221994726#0 1267462159#1"/>
    </vehicle>
    <vehicle id="171" type="motorbike" depart="14742.00">
        <route edges="1200728225#4 1163556238#1"/>
    </vehicle>
    <vehicle id="172" type="motorbike" depart="14744.00">
        <route edges="1200728225#4 1221994726#0 1267462159#1 1267462159#2"/>
    </vehicle>
    <vehicle id="173" type="motorbike" depart="14746.00">
        <route edges="1265822568#2 1265822568#3 1200728225#2 1200728225#3"/>
    </vehicle>
    <vehicle id="174" type="motorbike" depart="14748.00">
        <route edges="-1163556238#1 1221994726#0 1267462159#1 1267462159#2 1267462159#3"/>
    </vehicle>
    <vehicle id="175" type="motorbike" depart="14750.00">
        <route edges="1200728225#0 1200728225#1 1200728225#2"/>
    </vehicle>
    <vehicle id="176" type="motorbike" depart="14752.00">
        <route edges="1265822568#2 1265822568#3 1200728225#2 1200728225#3"/>
    </vehicle>
    <vehicle id="177" type="motorbike" depart="14754.00">
        <route edges="1265822568#0 1265822568#1 1265822568#2 1265822568#3 1221994726#1"/>
    </vehicle>
    <vehicle id="178" type="motorbike" depart="14756.00">
        <route edges="1265822568#3 1200728225#2 1200728225#3"/>
    </vehicle>
    <vehicle id="179" type="motorbike" depart="14758.00">
        <route edges="1265822568#2 1265822568#3 1200728225#2 1200728225#3"/>
    </vehicle>
    <vehicle id="180" type="motorbike" depart="14760.00">
        <route edges="1265822568#0 1265822568#1 1265822568#2 1265822568#3"/>
    </vehicle>
    <vehicle id="181" type="motorbike" depart="14762.00">
        <route edges="1200728225#1 1200728225#2"/>
    </vehicle>
    <vehicle id="182" type="motorbike" depart="14764.00">
        <route edges="1422795954 1200728225#0 1200728225#1 1221994726#1"/>
    </vehicle>
    <vehicle id="183" type="motorbike" depart="14766.00">
        <route edges="1200728225#1 1200728225#2"/>
    </vehicle>
    <vehicle id="184" type="motorbike" depart="14768.00">
        <route edges="1200728225#1 1200728225#2 1200728225#3 1200728225#4 1163556238#1"/>
    </vehicle>
    <vehicle id="185" type="motorbike" depart="14770.00">
        <route edges="1265822568#0 1265822568#1 1265822568#2 1265822568#3 1200728225#2 1200728225#3"/>
    </vehicle>
    <vehicle id="186" type="motorbike" depart="14772.00">
        <route edges="1422795954 1200728225#0 1200728225#1 1221994726#1 1221994726#2"/>
    </vehicle>
    <vehicle id="187" type="motorbike" depart="14774.00">
        <route edges="1200728225#1 1200728225#2 1200728225#3 1200728225#4 1163556238#1"/>
    </vehicle>
    <vehicle id="188" type="car" depart="14776.00">
        <route edges="1422795954 1200728225#0 1200728225#1 1221994726#1"/>
    </vehicle>
    <vehicle id="189" type="motorbike" depart="14778.00">