<?xml version="1.0" encoding="UTF-8"?>

<!-- generated on 2025-11-04 22:48:46 by Eclipse SUMO duarouter Version 1.24.0
<duarouterConfiguration xmlns:xsi="http://www.w3.org/2001/XMLSchema-instance" xsi:noNamespaceSchemaLocation="http://sumo.dlr.de/xsd/duarouterConfiguration.xsd">

    <input>
        <net-file value="D:\AfterGradEx\de_traffic_control\map.net.xml"/>
        <additional-files value="D:\AfterGradEx\de_traffic_control\hcmc_vtypes.xml"/>
        <route-files value="D:\AfterGradEx\de_traffic_control\trips.trips.xml"/>
    </input>

    <output>
        <output-file value="D:\AfterGradEx\de_traffic_control\routes.rou.xml"/>
    </output>

    <time>
        <begin value="0"/>
        <end value="16200"/>
    </time>

</duarouterConfiguration>
-->

<routes xmlns:xsi="http://www.w3.org/2001/XMLSchema-instance" xsi:noNamespaceSchemaLocation="http://sumo.dlr.de/xsd/routes_file.xsd">
    <vehicle id="1" type="car" depart="0.00">
        <route edges="1265822568#1 1265822568#2 1265822568#3 1200728225#2 1200728225#3 1200728225#4 1163556238#1"/>
    </vehicle>
    <vehicle id="2" type="motorbike" depart="2.00">
        <route edges="1200728225#2 1200728225#3 1200728225#4 1221994726#0 1221994726#1"/>
    </vehicle>
    <vehicle id="3" type="motorbike" depart="4.00">
        <route edges="1265822568#1 1265822568#2 1265822568#3 1221994726#1 1221994726#2"/>
    </vehicle>
    <vehicle id="4" type="motorbike" depart="6.00">
        <route edges="1200728225#2 1200728225#3 1200728225#4 1221994726#0 1221994726#1 1221994726#2"/>
    </vehicle>
    <vehicle id="5" type="motorbike" depart="8.00">
        <route edges="1422795954 1200728225#0 1200728225#1 1200728225#2 1200728225#3 1200728225#4"/>
    </vehicle>
    <vehicle id="6" type="motorbike" depart="10.00">
        <route edges="1200728225#0"/>
    </vehicle>
    <vehicle id="7" type="motorbike" depart="12.00">
        <route edges="1265822568#0 1265822568#1 1265822568#2 1265822568#3 1267462159#1 1267462159#2 1267462159#3"/>
    </vehicle>
    <vehicle id="8" type="motorbike" depart="14.00">
        <route edges="1200728225#4 1221994726#0 1221994726#1 1221994726#2"/>
    </vehicle>
    <vehicle id="9" type="motorbike" depart="16.00">
        <route edges="1265822568#2 1265822568#3 1200728225#2 1200728225#3 1200728225#4 1163556238#1"/>
    </vehicle>
    <vehicle id="10" type="motorbike" depart="18.00">
        <route edges="1200728225#2 1200728225#3"/>
    </vehicle>
    <vehicle id="11" type="motorbike" depart="20.00">
        <route edges="1200728225#0 1200728225#1 1200728225#2"/>
    </vehicle>
    <vehicle id="12" type="motorbike" depart="22.00">
        <route edges="1200728225#0 1200728225#1 1200728225#2 1200728225#3"/>
    </vehicle>
    <vehicle id="13" type="motorbike" depart="24.00">
        <route edges="1265822568#1 1265822568#2 1265822568#3 1200728225#2 1200728225#3 1200728225#4"/>
    </vehicle>
    <vehicle id="14" type="motorbike" depart="26.00">
        <route edges="1200728225#3 1200728225#4 1221994726#0 1267462159#1 1267462159#2 1267462159#3"/>
    </vehicle>
    <vehicle id="15" type="motorbike" depart="28.00">
        <route edges="1265822568#1"/>
    </vehicle>
    <vehicle id="16" type="motorbike" depart="30.00">
        <route edges="1200728225#1 1200728225#2 1200728225#3 1200728225#4"/>
    </vehicle>
    <vehicle id="17" type="motorbike" depart="32.00">
        <route edges="1265822568#0 1265822568#1 1265822568#2"/>
    </vehicle>
    <vehicle id="18" type="car" depart="34.00">
        <route edges="1200728225#2 1200728225#3 1200728225#4 1163556238#1"/>
    </vehicle>
    <vehicle id="19" type="motorbike" depart="36.00">
        <route edges="1200728225#3"/>
    </vehicle>
    <vehicle id="20" type="motorbike" depart="38.00">
        <route edges="1200728225#2 1200728225#3 1200728225#4 1221994726#0 1267462159#1 1267462159#2 1267462159#3"/>
    </vehicle>
    <vehicle id="21" type="motorbike" depart="40.00">
        <route edges="1265822568#1 1265822568#2 1265822568#3 1200728225#2 1200728225#3 1200728225#4"/>
    </vehicle>
    <vehicle id="22" type="motorbike" depart="42.00">
        <route edges="1200728225#2"/>
    </vehicle>
    <vehicle id="23" type="motorbike" depart="44.00">
        <route edges="1265822568#0 1265822568#1 1265822568#2 1265822568#3 1200728225#2"/>
    </vehicle>
    <vehicle id="24" type="motorbike" depart="46.00">
        <route edges="1265822568#0 1265822568#1 1265822568#2 1265822568#3 1267462159#1 1267462159#2"/>
    </vehicle>
    <vehicle id="25" type="car" depart="48.00">
        <route edges="1422795954 1200728225#0 1200728225#1 1221994726#1"/>
    </vehicle>
    <vehicle id="26" type="car" depart="50.00">
        <route edges="1200728225#0 1200728225#1 1200728225#2 1200728225#3 1200728225#4 1163556238#1"/>
    </vehicle>
    <vehicle id="27" type="car" depart="52.00">
        <route edges="1265822568#3 1200728225#2 1200728225#3 1200728225#4 1221994726#0"/>
    </vehicle>
    <vehicle id="28" type="motorbike" depart="54.00">
        <route edges="1422795954 1200728225#0 1200728225#1 1221994726#1"/>
    </vehicle>
    <vehicle id="29" type="motorbike" depart="56.00">
        <route edges="1422795954 1200728225#0 1200728225#1 1267462159#1"/>
    </vehicle>
    <vehicle id="30" type="motorbike" depart="58.00">
        <route edges="1265822568#2 1265822568#3 1221994726#1 1221994726#2"/>
    </vehicle>
    <vehicle id="31" type="motorbike" depart="60.00">
        <route edges="1200728225#0 1200728225#1 1200728225#2 1200728225#3 1200728225#4 1221994726#0"/>
    </vehicle>
    <vehicle id="32" type="motorbike" depart="62.00">
        <route edges="1221994726#0 1267462159#1 1267462159#2 1267462159#3"/>
    </vehicle>
    <vehicle id="33" type="motorbike" depart="64.00">
        <route edges="1267462159#2"/>
    </vehicle>
    <vehicle id="34" type="motorbike" depart="66.00">
        <route edges="1265822568#3 1221994726#1 1221994726#2"/>
    </vehicle>
    <vehicle id="35" type="bus" depart="68.00">
        <route edges="1265822568#3 1221994726#1"/>
    </vehicle>
    <vehicle id="36" type="motorbike" depart="70.00">
        <route edges="-1163556238#1 1221994726#0 1267462159#1 1267462159#2"/>
    </vehicle>
    <vehicle id="37" type="motorbike" depart="72.00">
        <route edges="1200728225#3 1200728225#4 1163556238#1"/>
    </vehicle>
    <vehicle id="38" type="motorbike" depart="74.00">
        <route edges="1267462159#2 1267462159#3"/>
    </vehicle>
    <vehicle id="39" type="motorbike" depart="76.00">
        <route edges="1200728225#0 1200728225#1 1221994726#1"/>
    </vehicle>
    <vehicle id="40" type="motorbike" depart="78.00">
        <route edges="1221994726#1 1221994726#2"/>
    </vehicle>
    <vehicle id="41" type="motorbike" depart="80.00">
        <route edges="1200728225#2 1200728225#3 1200728225#4 1221994726#0 1267462159#1 1267462159#2"/>
    </vehicle>
    <vehicle id="42" type="bus" depart="82.00">
        <route edges="1265822568#0 1265822568#1 1265822568#2"/>
    </vehicle>
    <vehicle id="43" type="motorbike" depart="84.00">
        <route edges="1200728225#2 1200728225#3"/>
    </vehicle>
    <vehicle id="44" type="motorbike" depart="86.00">
        <route edges="1221994726#0 1221994726#1"/>
    </vehicle>
    <vehicle id="45" type="motorbike" depart="88.00">
        <route edges="1200728225#0 1200728225#1 1200728225#2"/>
    </vehicle>
    <vehicle id="46" type="motorbike" depart="90.00">
        <route edges="1200728225#4 1221994726#0 1221994726#1 1221994726#2"/>
    </vehicle>
    <vehicle id="47" type="motorbike" depart="92.00">
        <route edges="1200728225#2"/>
    </vehicle>
    <vehicle id="48" type="car" depart="94.00">
        <route edges="1200728225#2 1200728225#3 1200728225#4 1221994726#0 1267462159#1 1267462159#2"/>
    </vehicle>
    <vehicle id="49" type="motorbike" depart="96.00">
        <route edges="1422795954 1200728225#0 1200728225#1 1221994726#1 1221994726#2"/>
    </vehicle>
    <vehicle id="50" type="motorbike" depart="98.00">
        <route edges="1200728225#0 1200728225#1 1200728225#2 1200728225#3 1200728225#4 1221994726#0"/>
    </vehicle>
    <vehicle id="51" type="motorbike" depart="100.00">
        <route edges="1221994726#0 1221994726#1"/>
    </vehicle>
    <vehicle id="52" type="motorbike" depart="102.00">
        <route edges="1265822568#2"/>
    </vehicle>
    <vehicle id="53" type="motorbike" depart="104.00">
        <route edges="1422795954 1200728225#0"/>
    </vehicle>
    <vehicle id="54" type="car" depart="106.00">
        <route edges="1200728225#1 1200728225#2 1200728225#3 1200728225#4 1221994726#0"/>
    </vehicle>
    <vehicle id="55" type="bus" depart="108.00">
        <route edges="1200728225#2 1200728225#3 1200728225#4 1221994726#0 1267462159#1 1267462159#2"/>
    </vehicle>
    <vehicle id="56" type="motorbike" depart="110.00">
        <route edges="1221994726#0 1267462159#1"/>
    </vehicle>
    <vehicle id="57" type="motorbike" depart="112.00">
        <route edges="1265822568#0 1265822568#1 1265822568#2 1265822568#3 1200728225#2 1200728225#3 1200728225#4 1163556238#1"/>
    </vehicle>
    <vehicle id="58" type="motorbike" depart="114.00">
        <route edges="1422795954 1200728225#0 1200728225#1 1267462159#1"/>
    </vehicle>
    <vehicle id="59" type="motorbike" depart="116.00">
        <route edges="1422795954 1200728225#0 1200728225#1 1267462159#1 1267462159#2"/>
    </vehicle>
    <vehicle id="60" type="bus" depart="118.00">
        <route edges="1200728225#4 1221994726#0 1267462159#1 1267462159#2 1267462159#3"/>
    </vehicle>
    <vehicle id="61" type="motorbike" depart="120.00">
        <route edges="1221994726#0"/>
    </vehicle>
    <vehicle id="62" type="motorbike" depart="122.00">
        <route edges="1422795954 1200728225#0 1200728225#1 1267462159#1 1267462159#2 1267462159#3"/>
    </vehicle>
    <vehicle id="63" type="motorbike" depart="124.00">
        <route edges="1265822568#0 1265822568#1 1265822568#2"/>
    </vehicle>
    <vehicle id="64" type="motorbike" depart="126.00">
        <route edges="1200728225#1 1200728225#2 1200728225#3"/>
    </vehicle>
    <vehicle id="65" type="motorbike" depart="128.00">
        <route edges="1422795954 1200728225#0 1200728225#1 1221994726#1 1221994726#2"/>
    </vehicle>
    <vehicle id="66" type="motorbike" depart="130.00">
        <route edges="1265822568#0 1265822568#1 1265822568#2 1265822568#3"/>
    </vehicle>
    <vehicle id="67" type="car" depart="132.00">
        <route edges="-1163556238#1 1221994726#0 1221994726#1 1221994726#2"/>
    </vehicle>
    <vehicle id="68" type="motorbike" depart="134.00">
        <route edges="1200728225#1 1267462159#1 1267462159#2 1267462159#3"/>
    </vehicle>
    <vehicle id="69" type="motorbike" depart="136.00">
        <route edges="1200728225#0 1200728225#1"/>
    </vehicle>
    <vehicle id="70" type="bus" depart="138.00">
        <route edges="1265822568#0 1265822568#1 1265822568#2"/>
    </vehicle>
    <vehicle id="71" type="motorbike" depart="140.00">
        <route edges="1265822568#0 1265822568#1"/>
    </vehicle>
    <vehicle id="72" type="motorbike" depart="142.00">
        <route edges="1221994726#0 1221994726#1 1221994726#2"/>
    </vehicle>
    <vehicle id="73" type="motorbike" depart="144.00">
        <route edges="1200728225#2 1200728225#3 1200728225#4"/>
    </vehicle>
    <vehicle id="74" type="motorbike" depart="146.00">
        <route edges="1265822568#2 1265822568#3 1200728225#2 1200728225#3"/>
    </vehicle>
    <vehicle id="75" type="motorbike" depart="148.00">
        <route edges="1200728225#0 1200728225#1 1200728225#2 1200728225#3 1200728225#4 1221994726#0"/>
    </vehicle>
    <vehicle id="76" type="motorbike" depart="150.00">
        <route edges="1422795954 1200728225#0 1200728225#1 1267462159#1 1267462159#2 1267462159#3"/>
    </vehicle>
    <vehicle id="77" type="motorbike" depart="152.00">
        <route edges="1200728225#0 1200728225#1 1200728225#2"/>
    </vehicle>
    <vehicle id="78" type="motorbike" depart="154.00">
        <route edges="1200728225#2 1200728225#3 1200728225#4 1221994726#0 1267462159#1 1267462159#2"/>
    </vehicle>
    <vehicle id="79" type="motorbike" depart="156.00">
        <route edges="1267462159#2"/>
    </vehicle>
    <vehicle id="80" type="motorbike" depart="158.00">
        <route edges="1265822568#1 1265822568#2 1265822568#3 1267462159#1 1267462159#2 1267462159#3"/>
    </vehicle>
    <vehicle id="81" type="motorbike" depart="160.00">
        <route edges="1265822568#1 1265822568#2 1265822568#3 1200728225#2 1200728225#3 1200728225#4 1163556238#1"/>
    </vehicle>
    <vehicle id="82" type="motorbike" depart="162.00">
        <route edges="1265822568#1 1265822568#2 1265822568#3 1267462159#1 1267462159#2 1267462159#3"/>
    </vehicle>
    <vehicle id="83" type="motorbike" depart="164.00">
        <route edges="1200728225#0 1200728225#1 1221994726#1 1221994726#2"/>
    </vehicle>
    <vehicle id="84" type="motorbike" depart="166.00">
        <route edges="1265822568#2 1265822568#3 1200728225#2"/>
    </vehicle>
    <vehicle id="85" type="motorbike" depart="168.00">
        <route edges="1265822568#1 1265822568#2 1265822568#3 1200728225#2"/>
    </vehicle>
    <vehicle id="86" type="motorbike" depart="170.00">
        <route edges="1265822568#1 1265822568#2 1265822568#3 1200728225#2"/>
    </vehicle>
    <vehicle id="87" type="motorbike" depart="172.00">
        <route edges="1265822568#3 1221994726#1 1221994726#2"/>
    </vehicle>
    <vehicle id="88" type="car" depart="174.00">
        <route edges="1200728225#0 1200728225#1 1267462159#1 1267462159#2"/>
    </vehicle>
    <vehicle id="89" type="motorbike" depart="176.00">
        <route edges="1200728225#3 1200728225#4 1221994726#0 1267462159#1 1267462159#2"/>
    </vehicle>
    <vehicle id="90" type="motorbike" depart="178.00">
        <route edges="1265822568#3 1267462159#1"/>
    </vehicle>
    <vehicle id="91" type="motorbike" depart="180.00">
        <route edges="1265822568#3 1267462159#1 1267462159#2"/>
    </vehicle>
    <vehicle id="92" type="bus" depart="182.00">
        <route edges="1200728225#1 1267462159#1 1267462159#2"/>
    </vehicle>
    <vehicle id="93" type="motorbike" depart="184.00">
        <route edges="1267462159#1 1267462159#2 1267462159#3"/>
    </vehicle>
    <vehicle id="94" type="motorbike" depart="186.00">
        <route edges="1267462159#1 1267462159#2"/>
    </vehicle>
    <vehicle id="95" type="motorbike" depart="188.00">
        <route edges="1200728225#3 1200728225#4 1221994726#0 1267462159#1 1267462159#2"/>
    </vehicle>
    <vehicle id="96" type="car" depart="190.00">
        <route edges="1267462159#1"/>
    </vehicle>
    <vehicle id="97" type="motorbike" depart="192.00">
        <route edges="1200728225#2 1200728225#3 1200728225#4 1221994726#0 1267462159#1"/>
    </vehicle>
    <vehicle id="98" type="car" depart="194.00">
        <route edges="1265822568#3 1200728225#2"/>
    </vehicle>
    <vehicle id="99" type="motorbike" depart="196.00">
        <route edges="1200728225#3 1200728225#4 1221994726#0 1267462159#1"/>
    </vehicle>
    <vehicle id="100" type="motorbike" depart="198.00">
        <route edges="1422795954 1200728225#0 1200728225#1 1200728225#2 1200728225#3"/>
    </vehicle>
    <vehicle id="101" type="motorbike" depart="200.00">
        <route edges="1265822568#1 1265822568#2 1265822568#3 1200728225#2 1200728225#3 1200728225#4"/>
    </vehicle>
    <vehicle id="102" type="motorbike" depart="202.00">
        <route edges="1422795954 1200728225#0 1200728225#1 1221994726#1 1221994726#2"/>
    </vehicle>
    <vehicle id="103" type="car" depart="204.00">
        <route edges="1422795954 1200728225#0"/>
    </vehicle>
    <vehicle id="104" type="motorbike" depart="206.00">
        <route edges="1422795954 1200728225#0 1200728225#1"/>
    </vehicle>
    <vehicle id="105" type="bus" depart="208.00">
        <route edges="1422795954 1200728225#0 1200728225#1 1200728225#2"/>
    </vehicle>
    <vehicle id="106" type="motorbike" depart="210.00">
        <route edges="1200728225#0 1200728225#1 1200728225#2 1200728225#3 1200728225#4 1221994726#0"/>
    </vehicle>
    <vehicle id="107" type="motorbike" depart="212.00">
        <route edges="1265822568#2 1265822568#3 1200728225#2 1200728225#3"/>
    </vehicle>
    <vehicle id="108" type="motorbike" depart="214.00">
        <route edges="1265822568#1 1265822568#2 1265822568#3 1221994726#1"/>
    </vehicle>
    <vehicle id="109" type="motorbike" depart="216.00">
        <route edges="1200728225#4 1221994726#0 1221994726#1 1221994726#2"/>
    </vehicle>
    <vehicle id="110" type="motorbike" depart="218.00">
        <route edges="-1163556238#1 1221994726#0 1267462159#1 1267462159#2"/>
    </vehicle>
    <vehicle id="111" type="motorbike" depart="220.00">
        <route edges="1265822568#0 1265822568#1 1265822568#2"/>
    </vehicle>
    <vehicle id="112" type="motorbike" depart="222.00">
        <route edges="1265822568#1 1265822568#2 1265822568#3 1200728225#2 1200728225#3"/>
    </vehicle>
    <vehicle id="113" type="motorbike" depart="224.00">
        <route edges="1200728225#3 1200728225#4 1221994726#0 1267462159#1"/>
    </vehicle>
    <vehicle id="114" type="motorbike" depart="226.00">
        <route edges="1265822568#2 1265822568#3 1200728225#2 1200728225#3"/>
    </vehicle>
    <vehicle id="115" type="motorbike" depart="228.00">
        <route edges="1200728225#3 1200728225#4 1221994726#0"/>
    </vehicle>
    <vehicle id="116" type="motorbike" depart="230.00">
        <route edges="1200728225#0 1200728225#1 1200728225#2 1200728225#3 1200728225#4 1221994726#0"/>
    </vehicle>
    <vehicle id="117" type="motorbike" depart="232.00">
        <route edges="1200728225#3 1200728225#4 1221994726#0 1221994726#1 1221994726#2"/>
    </vehicle>
    <vehicle id="118" type="motorbike" depart="234.00">
        <route edges="1221994726#0 1221994726#1 1221994726#2"/>
    </vehicle>
    <vehicle id="119" type="car" depart="236.00">
        <route edges="1265822568#1 1265822568#2 1265822568#3 1200728225#2 1200728225#3 1200728225#4 1221994726#0"/>
    </vehicle>
    <vehicle id="120" type="motorbike" depart="238.00">
        <route edges="1200728225#0 1200728225#1 1221994726#1"/>
    </vehicle>
    <vehicle id="121" type="motorbike" depart="240.00">
        <route edges="1265822568#1 1265822568#2 1265822568#3 1200728225#2 1200728225#3 1200728225#4"/>
    </vehicle>
    <vehicle id="122" type="motorbike" depart="242.00">
        <route edges="1265822568#2 1265822568#3 1200728225#2"/>
    </vehicle>
    <vehicle id="123" type="motorbike" depart="244.00">
        <route edges="1200728225#1 1200728225#2 1200728225#3 1200728225#4 1163556238#1"/>
    </vehicle>
    <vehicle id="124" type="motorbike" depart="246.00">
        <route edges="1200728225#2 1200728225#3 1200728225#4 1221994726#0 1221994726#1"/>
    </vehicle>
    <vehicle id="125" type="bus" depart="248.00">
        <route edges="1265822568#1 1265822568#2 1265822568#3 1200728225#2 1200728225#3 1200728225#4 1163556238#1"/>
    </vehicle>
    <vehicle id="126" type="car" depart="250.00">
        <route edges="1265822568#3"/>
    </vehicle>
    <vehicle id="127" type="motorbike" depart="252.00">
        <route edges="1200728225#0 1200728225#1 1200728225#2 1200728225#3 1200728225#4 1221994726#0"/>
    </vehicle>
    <vehicle id="128" type="car" depart="254.00">
        <route edges="1200728225#1 1267462159#1 1267462159#2 1267462159#3"/>
    </vehicle>
    <vehicle id="129" type="motorbike" depart="256.00">
        <route edges="1200728225#2 1200728225#3 1200728225#4 1221994726#0 1267462159#1"/>
    </vehicle>
    <vehicle id="130" type="motorbike" depart="258.00">
        <route edges="1221994726#0 1267462159#1"/>
    </vehicle>
    <vehicle id="131" type="motorbike" depart="260.00">
        <route edges="1265822568#2 1265822568#3 1267462159#1 1267462159#2 1267462159#3"/>
    </vehicle>
    <vehicle id="132" type="motorbike" depart="262.00">
        <route edges="1265822568#0 1265822568#1 1265822568#2 1265822568#3 1267462159#1 1267462159#2 1267462159#3"/>
    </vehicle>
    <vehicle id="133" type="motorbike" depart="264.00">
        <route edges="1265822568#2 1265822568#3 1221994726#1"/>
    </vehicle>
    <vehicle id="134" type="motorbike" depart="266.00">
        <route edges="1265822568#3 1221994726#1"/>
    </vehicle>
    <vehicle id="135" type="motorbike" depart="268.00">
        <route edges="1265822568#1 1265822568#2 1265822568#3 1200728225#2 1200728225#3"/>
    </vehicle>
    <vehicle id="136" type="motorbike" depart="270.00">
        <route edges="1200728225#0 1200728225#1 1200728225#2 1200728225#3"/>
    </vehicle>
    <vehicle id="137" type="motorbike" depart="272.00">
        <route edges="1200728225#3"/>
    </vehicle>
    <vehicle id="138" type="motorbike" depart="274.00">
        <route edges="1265822568#2 1265822568#3 1200728225#2 1200728225#3 1200728225#4 1163556238#1"/>
    </vehicle>
    <vehicle id="139" type="car" depart="276.00">
        <route edges="1221994726#0 1221994726#1 1221994726#2"/>
    </vehicle>
    <vehicle id="140" type="motorbike" depart="278.00">
        <route edges="1221994726#0 1267462159#1 1267462159#2"/>
    </vehicle>
    <vehicle id="141" type="car" depart="280.00">
        <route edges="1265822568#0 1265822568#1 1265822568#2"/>
    </vehicle>
    <vehicle id="142" type="car" depart="282.00">
        <route edges="1200728225#4 1163556238#1"/>
    </vehicle>
    <vehicle id="143" type="motorbike" depart="284.00">
        <route edges="1267462159#1 1267462159#2 1267462159#3"/>
    </vehicle>
    <vehicle id="144" type="motorbike" depart="286.00">
        <route edges="1265822568#0 1265822568#1"/>
    </vehicle>
    <vehicle id="145" type="bus" depart="288.00">
        <route edges="1200728225#2"/>
    </vehicle>
    <vehicle id="146" type="car" depart="290.00">
        <route edges="1265822568#1 1265822568#2 1265822568#3 1200728225#2 1200728225#3 1200728225#4 1163556238#1"/>
    </vehicle>
    <vehicle id="147" type="motorbike" depart="292.00">
        <route edges="1200728225#4 1221994726#0 1221994726#1 1221994726#2"/>
    </vehicle>
    <vehicle id="148" type="car" depart="294.00">
        <route edges="1200728225#1 1200728225#2 1200728225#3 1200728225#4 1221994726#0"/>
    </vehicle>
    <vehicle id="149" type="motorbike" depart="296.00">
        <route edges="1200728225#2 1200728225#3"/>
    </vehicle>
    <vehicle id="150" type="motorbike" depart="298.00">
        <route edges="1265822568#3 1200728225#2 1200728225#3 1200728225#4"/>
    </vehicle>
    <vehicle id="151" type="motorbike" depart="300.00">
        <route edges="1265822568#3 1267462159#1"/>
    </vehicle>
    <vehicle id="152" type="motorbike" depart="302.00">
        <route edges="-1163556238#1 1221994726#0 1221994726#1 1221994726#2"/>
    </vehicle>
    <vehicle id="153" type="motorbike" depart="304.00">
        <route edges="1422795954 1200728225#0 1200728225#1 1200728225#2 1200728225#3 1200728225#4"/>
    </vehicle>
    <vehicle id="154" type="motorbike" depart="306.00">
        <route edges="1265822568#1 1265822568#2 1265822568#3"/>
    </vehicle>
    <vehicle id="155" type="motorbike" depart="308.00">
        <route edges="1265822568#1 1265822568#2 1265822568#3"/>
    </vehicle>
    <vehicle id="156" type="car" depart="310.00">
        <route edges="1422795954 1200728225#0 1200728225#1"/>
    </vehicle>
    <vehicle id="157" type="motorbike" depart="312.00">
        <route edges="1265822568#0 1265822568#1 1265822568#2 1265822568#3 1200728225#2"/>
    </vehicle>
    <vehicle id="158" type="motorbike" depart="314.00">
        <route edges="1265822568#2 1265822568#3"/>
    </vehicle>
    <vehicle id="159" type="car" depart="316.00">
        <route edges="1267462159#1 1267462159#2 1267462159#3"/>
    </vehicle>
    <vehicle id="160" type="motorbike" depart="318.00">
        <route edges="1200728225#0 1200728225#1 1200728225#2 1200728225#3 1200728225#4 1163556238#1"/>
    </vehicle>
    <vehicle id="161" type="motorbike" depart="320.00">
        <route edges="1422795954 1200728225#0 1200728225#1 1200728225#2 1200728225#3 1200728225#4"/>
    </vehicle>
    <vehicle id="162" type="car" depart="322.00">
        <route edges="1200728225#0 1200728225#1 1267462159#1 1267462159#2 1267462159#3"/>
    </vehicle>
    <vehicle id="163" type="car" depart="324.00">
        <route edges="1265822568#3 1200728225#2 1200728225#3 1200728225#4"/>
    </vehicle>
    <vehicle id="164" type="motorbike" depart="326.00">
        <route edges="1267462159#1"/>
    </vehicle>
    <vehicle id="165" type="bus" depart="328.00">
        <route edges="1200728225#0 1200728225#1 1267462159#1 1267462159#2 1267462159#3"/>
    </vehicle>
    <vehicle id="166" type="motorbike" depart="330.00">
        <route edges="1265822568#1 1265822568#2 1265822568#3 1267462159#1"/>
    </vehicle>
    <vehicle id="167" type="car" depart="332.00">
        <route edges="1265822568#2 1265822568#3 1200728225#2 1200728225#3 1200728225#4 1221994726#0"/>
    </vehicle>
    <vehicle id="168" type="motorbike" depart="334.00">
        <route edges="1265822568#3 1267462159#1 1267462159#2 1267462159#3"/>
    </vehicle>
    <vehicle id="169" type="motorbike" depart="336.00">
        <route edges="1200728225#3 1200728225#4 1221994726#0 1267462159#1"/>
    </vehicle>
    <vehicle id="170" type="car" depart="338.00">
        <route edges="1265822568#0 1265822568#1 1265822568#2 1265822568#3 1221994726#1"/>
    </vehicle>
    <vehicle id="171" type="motorbike" depart="340.00">
        <route edges="1200728225#3 1200728225#4 1221994726#0 1267462159#1"/>
    </vehicle>
    <vehicle id="172" type="motorbike" depart="342.00">
        <route edges="1200728225#4 1163556238#1"/>
    </vehicle>
    <vehicle id="173" type="motorbike" depart="344.00">
        <route edges="1200728225#4 1221994726#0 1267462159#1 1267462159#2"/>
    </vehicle>
    <vehicle id="174" type="motorbike" depart="346.00">
        <route edges="1265822568#2 1265822568#3 1200728225#2 1200728225#3"/>
    </vehicle>
    <vehicle id="175" type="motorbike" depart="348.00">
        <route edges="-1163556238#1 1221994726#0 1267462159#1 1267462159#2 1267462159#3"/>
    </vehicle>
    <vehicle id="176" type="motorbike" depart="350.00">
        <route edges="1200728225#0 1200728225#1 1200728225#2"/>
    </vehicle>
    <vehicle id="177" type="motorbike" depart="352.00">
        <route edges="1265822568#2 1265822568#3 1200728225#2 1200728225#3"/>
    </vehicle>
    <vehicle id="178" type="motorbike" depart="354.00">
        <route edges="1265822568#0 1265822568#1 1265822568#2 1265822568#3 1221994726#1"/>
    </vehicle>
    <vehicle id="179" type="car" depart="356.00">
        <route edges="1265822568#3 1200728225#2 1200728225#3"/>
    </vehicle>
    <vehicle id="180" type="motorbike" depart="358.00">
        <route edges="1265822568#2 1265822568#3 1200728225#2 1200728225#3"/>
    </vehicle>
    <vehicle id="181" type="motorbike" depart="360.00">
        <route edges="1265822568#0 1265822568#1 1265822568#2 1265822568#3"/>
    </vehicle>
    <vehicle id="182" type="motorbike" depart="362.00">
        <route edges="1200728225#1 1200728225#2"/>
    </vehicle>
    <vehicle id="183" type="motorbike" depart="364.00">
        <route edges="1422795954 1200728225#0 1200728225#1 1221994726#1"/>
    </vehicle>
    <vehicle id="184" type="motorbike" depart="366.00">
        <route edges="1200728225#1 1200728225#2"/>
    </vehicle>
    <vehicle id="185" type="motorbike" depart="368.00">
        <route edges="1200728225#1 1200728225#2 1200728225#3 1200728225#4 1163556238#1"/>
    </vehicle>
    <vehicle id="186" type="motorbike" depart="370.00">
        <route edges="1265822568#0 1265822568#1 1265822568#2 1265822568#3 1200728225#2 1200728225#3"/>
    </vehicle>
    <vehicle id="187" type="motorbike" depart="372.00">
        <route edges="1422795954 1200728225#0 1200728225#1 1221994726#1 1221994726#2"/>
    </vehicle>
    <vehicle id="188" type="motorbike" depart="374.00">
        <route edges="1200728225#1 1200728225#2 1200728225#3 1200728225#4 1163556238#1"/>
    </vehicle>
    <vehicle id="189" type="car" depart="376.00">
        <route edges="1422795954 1200728225#0 1200728225#1 1221994726#1"/>
    </vehicle>
    <vehicle id="190" type="motorbike" depart="378.00">
        <route edges="1265822568#0 1265822568#1 1265822568#2 1265822568#3 1200728225#2 1200728225#3"/>
    </vehicle>
    <vehicle id="191" type="motorbike" depart="380.00">
        <route edges="1422795954 1200728225#0"/>
    </vehicle>
    <vehicle id="192" type="car" depart="382.00">
        <route edges="1265822568#3 1200728225#2"/>
    </vehicle>
    <vehicle id="193" type="motorbike" depart="384.00">
        <route edges="1221994726#0 1267462159#1"/>
    </vehicle>
    <vehicle id="194" type="motorbike" depart="386.00">
        <route edges="1422795954 1200728225#0 1200728225#1 1200728225#2 1200728225#3"/>
    </vehicle>
    <vehicle id="195" type="motorbike" depart="388.00">
        <route edges="1265822568#1"/>
    </vehicle>
    <vehicle id="196" type="car" depart="390.00">
        <route edges="1265822568#3 1267462159#1 1267462159#2 1267462159#3"/>
    </vehicle>
    <vehicle id="197" type="motorbike" depart="392.00">
        <route edges="1200728225#2"/>
    </vehicle>
    <vehicle id="198" type="car" depart="394.00">
        <route edges="-1163556238#1 1221994726#0"/>
    </vehicle>
    <vehicle id="199" type="motorbike" depart="396.00">
        <route edges="1265822568#0 1265822568#1 1265822568#2 1265822568#3 1200728225#2 1200728225#3"/>
    </vehicle>
    <vehicle id="200" type="motorbike" depart="398.00">
        <route edges="1265822568#2 1265822568#3 1200728225#2 1200728225#3 1200728225#4 1221994726#0"/>
    </vehicle>
    <vehicle id="201" type="motorbike" depart="400.00">
        <route edges="1265822568#2 1265822568#3 1267462159#1 1267462159#2"/>