<configuration>
  <input>
    <net-file value="map.net.xml"/>
    <route-files value="routes.rou.xml"/>
    <additional-files value="hcmc_vtypes.xml"/>
  </input>
  <time>
    <begin value="0"/>
    <end value="16200"/>
  </time>
</configuration>
