<?xml version="1.0" encoding="UTF-8"?>

<!-- generated on 2025-11-04 20:07:16.306213 by randomTrips.py v1_24_0+0000-b72eb3fabc8
<configuration>
    <net-file value="D:\AfterGradEx\de_traffic_control\map.net.xml"/>
    <additional-files value="D:\AfterGradEx\de_traffic_control\hcmc_vtypes.xml"/>
    <output-trip-file value="D:\AfterGradEx\de_traffic_control\trips_rush_4.trips.xml"/>
    <trip-attributes value="type=&quot;hcmc_fleet&quot;"/>
    <begin value="7200.0"/>
    <end value="9000.0"/>
    <period value="0.6"/>
</configuration>
-->

<routes xmlns:xsi="http://www.w3.org/2001/XMLSchema-instance" xsi:noNamespaceSchemaLocation="http://sumo.dlr.de/xsd/routes_file.xsd">
    <trip id="0" depart="7200.00" from="1265822568#1" to="1163556238#1" type="hcmc_fleet"/>
    <trip id="1" depart="7200.60" from="1200728225#2" to="1221994726#1" type="hcmc_fleet"/>
    <trip id="2" depart="7201.20" from="1265822568#1" to="1221994726#2" type="hcmc_fleet"/>
    <trip id="3" depart="7201.80" from="1200728225#2" to="1221994726#2" type="hcmc_fleet"/>
    <trip id="4" depart="7202.40" from="1422795954" to="1200728225#4" type="hcmc_fleet"/>
    <trip id="5" depart="7203.00" from="1200728225#0" to="1200728225#0" type="hcmc_fleet"/>
    <trip id="6" depart="7203.60" from="1265822568#0" to="1267462159#3" type="hcmc_fleet"/>
    <trip id="7" depart="7204.20" from="1200728225#4" to="1221994726#2" type="hcmc_fleet"/>
    <trip id="8" depart="7204.80" from="1265822568#2" to="1163556238#1" type="hcmc_fleet"/>
    <trip id="9" depart="7205.40" from="1200728225#2" to="1200728225#3" type="hcmc_fleet"/>
    <trip id="10" depart="7206.00" from="1200728225#0" to="1200728225#2" type="hcmc_fleet"/>
    <trip id="11" depart="7206.60" from="1200728225#0" to="1200728225#3" type="hcmc_fleet"/>
    <trip id="12" depart="7207.20" from="1265822568#1" to="1200728225#4" type="hcmc_fleet"/>
    <trip id="13" depart="7207.80" from="1200728225#3" to="1267462159#3" type="hcmc_fleet"/>
    <trip id="14" depart="7208.40" from="1265822568#1" to="1265822568#1" type="hcmc_fleet"/>
    <trip id="15" depart="7209.00" from="1200728225#1" to="1200728225#4" type="hcmc_fleet"/>
    <trip id="16" depart="7209.60" from="1265822568#0" to="1265822568#2" type="hcmc_fleet"/>
    <trip id="17" depart="7210.20" from="1200728225#2" to="1163556238#1" type="hcmc_fleet"/>
    <trip id="18" depart="7210.80" from="1200728225#3" to="1200728225#3" type="hcmc_fleet"/>
    <trip id="19" depart="7211.40" from="1200728225#2" to="1267462159#3" type="hcmc_fleet"/>
    <trip id="20" depart="7212.00" from="1265822568#1" to="1200728225#4" type="hcmc_fleet"/>
    <trip id="21" depart="7212.60" from="1200728225#2" to="1200728225#2" type="hcmc_fleet"/>
    <trip id="22" depart="7213.20" from="1265822568#0" to="1200728225#2" type="hcmc_fleet"/>
    <trip id="23" depart="7213.80" from="1265822568#0" to="1267462159#2" type="hcmc_fleet"/>
    <trip id="24" depart="7214.40" from="1422795954" to="1221994726#1" type="hcmc_fleet"/>
    <trip id="25" depart="7215.00" from="1200728225#0" to="1163556238#1" type="hcmc_fleet"/>
    <trip id="26" depart="7215.60" from="1265822568#3" to="1221994726#0" type="hcmc_fleet"/>
    <trip id="27" depart="7216.20" from="1422795954" to="1221994726#1" type="hcmc_fleet"/>
    <trip id="28" depart="7216.80" from="1422795954" to="1267462159#1" type="hcmc_fleet"/>
    <trip id="29" depart="7217.40" from="1265822568#2" to="1221994726#2" type="hcmc_fleet"/>
    <trip id="30" depart="7218.00" from="1200728225#0" to="1221994726#0" type="hcmc_fleet"/>
    <trip id="31" depart="7218.60" from="1221994726#0" to="1267462159#3" type="hcmc_fleet"/>
    <trip id="32" depart="7219.20" from="1267462159#2" to="1267462159#2" type="hcmc_fleet"/>
    <trip id="33" depart="7219.80" from="1265822568#3" to="1221994726#2" type="hcmc_fleet"/>
    <trip id="34" depart="7220.40" from="1265822568#3" to="1221994726#1" type="hcmc_fleet"/>
    <trip id="35" depart="7221.00" from="-1163556238#1" to="1267462159#2" type="hcmc_fleet"/>
    <trip id="36" depart="7221.60" from="1200728225#3" to="1163556238#1" type="hcmc_fleet"/>
    <trip id="37" depart="7222.20" from="1267462159#2" to="1267462159#3" type="hcmc_fleet"/>
    <trip id="38" depart="7222.80" from="1200728225#0" to="1221994726#1" type="hcmc_fleet"/>
    <trip id="39" depart="7223.40" from="1221994726#1" to="1221994726#2" type="hcmc_fleet"/>
    <trip id="40" depart="7224.00" from="1200728225#2" to="1267462159#2" type="hcmc_fleet"/>
    <trip id="41" depart="7224.60" from="1265822568#0" to="1265822568#2" type="hcmc_fleet"/>
    <trip id="42" depart="7225.20" from="1200728225#2" to="1200728225#3" type="hcmc_fleet"/>
    <trip id="43" depart="7225.80" from="1221994726#0" to="1221994726#1" type="hcmc_fleet"/>
    <trip id="44" depart="7226.40" from="1200728225#0" to="1200728225#2" type="hcmc_fleet"/>
    <trip id="45" depart="7227.00" from="1200728225#4" to="1221994726#2" type="hcmc_fleet"/>
    <trip id="46" depart="7227.60" from="1200728225#2" to="1200728225#2" type="hcmc_fleet"/>
    <trip id="47" depart="7228.20" from="1200728225#2" to="1267462159#2" type="hcmc_fleet"/>
    <trip id="48" depart="7228.80" from="1422795954" to="1221994726#2" type="hcmc_fleet"/>
    <trip id="49" depart="7229.40" from="1200728225#0" to="1221994726#0" type="hcmc_fleet"/>
    <trip id="50" depart="7230.00" from="1221994726#0" to="1221994726#1" type="hcmc_fleet"/>
    <trip id="51" depart="7230.60" from="1265822568#2" to="1265822568#2" type="hcmc_fleet"/>
    <trip id="52" depart="7231.20" from="1422795954" to="1200728225#0" type="hcmc_fleet"/>
    <trip id="53" depart="7231.80" from="1200728225#1" to="1221994726#0" type="hcmc_fleet"/>
    <trip id="54" depart="7232.40" from="1200728225#2" to="1267462159#2" type="hcmc_fleet"/>
    <trip id="55" depart="7233.00" from="1221994726#0" to="1267462159#1" type="hcmc_fleet"/>
    <trip id="56" depart="7233.60" from="1265822568#0" to="1163556238#1" type="hcmc_fleet"/>
    <trip id="57" depart="7234.20" from="1422795954" to="1267462159#1" type="hcmc_fleet"/>
    <trip id="58" depart="7234.80" from="1422795954" to="1267462159#2" type="hcmc_fleet"/>
    <trip id="59" depart="7235.40" from="1200728225#4" to="1267462159#3" type="hcmc_fleet"/>
    <trip id="60" depart="7236.00" from="1221994726#0" to="1221994726#0" type="hcmc_fleet"/>
    <trip id="61" depart="7236.60" from="1422795954" to="1267462159#3" type="hcmc_fleet"/>
    <trip id="62" depart="7237.20" from="1265822568#0" to="1265822568#2" type="hcmc_fleet"/>
    <trip id="63" depart="7237.80" from="1200728225#1" to="1200728225#3" type="hcmc_fleet"/>
    <trip id="64" depart="7238.40" from="1422795954" to="1221994726#2" type="hcmc_fleet"/>
    <trip id="65" depart="7239.00" from="1265822568#0" to="1265822568#3" type="hcmc_fleet"/>
    <trip id="66" depart="7239.60" from="-1163556238#1" to="1221994726#2" type="hcmc_fleet"/>
    <trip id="67" depart="7240.20" from="1200728225#1" to="1267462159#3" type="hcmc_fleet"/>
    <trip id="68" depart="7240.80" from="1200728225#0" to="1200728225#1" type="hcmc_fleet"/>
    <trip id="69" depart="7241.40" from="1265822568#0" to="1265822568#2" type="hcmc_fleet"/>
    <trip id="70" depart="7242.00" from="1265822568#0" to="1265822568#1" type="hcmc_fleet"/>
    <trip id="71" depart="7242.60" from="1221994726#0" to="1221994726#2" type="hcmc_fleet"/>
    <trip id="72" depart="7243.20" from="1200728225#2" to="1200728225#4" type="hcmc_fleet"/>
    <trip id="73" depart="7243.80" from="1265822568#2" to="1200728225#3" type="hcmc_fleet"/>
    <trip id="74" depart="7244.40" from="1200728225#0" to="1221994726#0" type="hcmc_fleet"/>
    <trip id="75" depart="7245.00" from="1422795954" to="1267462159#3" type="hcmc_fleet"/>
    <trip id="76" depart="7245.60" from="1200728225#0" to="1200728225#2" type="hcmc_fleet"/>
    <trip id="77" depart="7246.20" from="1200728225#2" to="1267462159#2" type="hcmc_fleet"/>
    <trip id="78" depart="7246.80" from="1267462159#2" to="1267462159#2" type="hcmc_fleet"/>
    <trip id="79" depart="7247.40" from="1265822568#1" to="1267462159#3" type="hcmc_fleet"/>
    <trip id="80" depart="7248.00" from="1265822568#1" to="1163556238#1" type="hcmc_fleet"/>
    <trip id="81" depart="7248.60" from="1265822568#1" to="1267462159#3" type="hcmc_fleet"/>
    <trip id="82" depart="7249.20" from="1200728225#0" to="1221994726#2" type="hcmc_fleet"/>
    <trip id="83" depart="7249.80" from="1265822568#2" to="1200728225#2" type="hcmc_fleet"/>
    <trip id="84" depart="7250.40" from="1265822568#1" to="1200728225#2" type="hcmc_fleet"/>
    <trip id="85" depart="7251.00" from="1265822568#1" to="1200728225#2" type="hcmc_fleet"/>
    <trip id="86" depart="7251.60" from="1265822568#3" to="1221994726#2" type="hcmc_fleet"/>
    <trip id="87" depart="7252.20" from="1200728225#0" to="1267462159#2" type="hcmc_fleet"/>
    <trip id="88" depart="7252.80" from="1200728225#3" to="1267462159#2" type="hcmc_fleet"/>
    <trip id="89" depart="7253.40" from="1265822568#3" to="1267462159#1" type="hcmc_fleet"/>
    <trip id="90" depart="7254.00" from="1265822568#3" to="1267462159#2" type="hcmc_fleet"/>
    <trip id="91" depart="7254.60" from="1200728225#1" to="1267462159#2" type="hcmc_fleet"/>
    <trip id="92" depart="7255.20" from="1267462159#1" to="1267462159#3" type="hcmc_fleet"/>
    <trip id="93" depart="7255.80" from="1267462159#1" to="1267462159#2" type="hcmc_fleet"/>
    <trip id="94" depart="7256.40" from="1200728225#3" to="1267462159#2" type="hcmc_fleet"/>
    <trip id="95" depart="7257.00" from="1267462159#1" to="1267462159#1" type="hcmc_fleet"/>
    <trip id="96" depart="7257.60" from="1200728225#2" to="1267462159#1" type="hcmc_fleet"/>
    <trip id="97" depart="7258.20" from="1265822568#3" to="1200728225#2" type="hcmc_fleet"/>
    <trip id="98" depart="7258.80" from="1200728225#3" to="1267462159#1" type="hcmc_fleet"/>
    <trip id="99" depart="7259.40" from="1422795954" to="1200728225#3" type="hcmc_fleet"/>
    <trip id="100" depart="7260.00" from="1265822568#1" to="1200728225#4" type="hcmc_fleet"/>
    <trip id="101" depart="7260.60" from="1422795954" to="1221994726#2" type="hcmc_fleet"/>
    <trip id="102" depart="7261.20" from="1422795954" to="1200728225#0" type="hcmc_fleet"/>
    <trip id="103" depart="7261.80" from="1422795954" to="1200728225#1" type="hcmc_fleet"/>
    <trip id="104" depart="7262.40" from="1422795954" to="1200728225#2" type="hcmc_fleet"/>
    <trip id="105" depart="7263.00" from="1200728225#0" to="1221994726#0" type="hcmc_fleet"/>
    <trip id="106" depart="7263.60" from="1265822568#2" to="1200728225#3" type="hcmc_fleet"/>
    <trip id="107" depart="7264.20" from="1265822568#1" to="1221994726#1" type="hcmc_fleet"/>
    <trip id="108" depart="7264.80" from="1200728225#4" to="1221994726#2" type="hcmc_fleet"/>
    <trip id="109" depart="7265.40" from="-1163556238#1" to="1267462159#2" type="hcmc_fleet"/>
    <trip id="110" depart="7266.00" from="1265822568#0" to="1265822568#2" type="hcmc_fleet"/>
    <trip id="111" depart="7266.60" from="1265822568#1" to="1200728225#3" type="hcmc_fleet"/>
    <trip id="112" depart="7267.20" from="1200728225#3" to="1267462159#1" type="hcmc_fleet"/>
    <trip id="113" depart="7267.80" from="1265822568#2" to="1200728225#3" type="hcmc_fleet"/>
    <trip id="114" depart="7268.40" from="1200728225#3" to="1221994726#0" type="hcmc_fleet"/>
    <trip id="115" depart="7269.00" from="1200728225#0" to="1221994726#0" type="hcmc_fleet"/>
    <trip id="116" depart="7269.60" from="1200728225#3" to="1221994726#2" type="hcmc_fleet"/>
    <trip id="117" depart="7270.20" from="1221994726#0" to="1221994726#2" type="hcmc_fleet"/>
    <trip id="118" depart="7270.80" from="1265822568#1" to="1221994726#0" type="hcmc_fleet"/>
    <trip id="119" depart="7271.40" from="1200728225#0" to="1221994726#1" type="hcmc_fleet"/>
    <trip id="120" depart="7272.00" from="1265822568#1" to="1200728225#4" type="hcmc_fleet"/>
    <trip id="121" depart="7272.60" from="1265822568#2" to="1200728225#2" type="hcmc_fleet"/>
    <trip id="122" depart="7273.20" from="1200728225#1" to="1163556238#1" type="hcmc_fleet"/>
    <trip id="123" depart="7273.80" from="1200728225#2" to="1221994726#1" type="hcmc_fleet"/>
    <trip id="124" depart="7274.40" from="1265822568#1" to="1163556238#1" type="hcmc_fleet"/>
    <trip id="125" depart="7275.00" from="1265822568#3" to="1265822568#3" type="hcmc_fleet"/>
    <trip id="126" depart="7275.60" from="1200728225#0" to="1221994726#0" type="hcmc_fleet"/>
    <trip id="127" depart="7276.20" from="1200728225#1" to="1267462159#3" type="hcmc_fleet"/>
    <trip id="128" depart="7276.80" from="1200728225#2" to="1267462159#1" type="hcmc_fleet"/>
    <trip id="129" depart="7277.40" from="1221994726#0" to="1267462159#1" type="hcmc_fleet"/>
    <trip id="130" depart="7278.00" from="1265822568#2" to="1267462159#3" type="hcmc_fleet"/>
    <trip id="131" depart="7278.60" from="1265822568#0" to="1267462159#3" type="hcmc_fleet"/>
    <trip id="132" depart="7279.20" from="1265822568#2" to="1221994726#1" type="hcmc_fleet"/>
    <trip id="133" depart="7279.80" from="1265822568#3" to="1221994726#1" type="hcmc_fleet"/>
    <trip id="134" depart="7280.40" from="1265822568#1" to="1200728225#3" type="hcmc_fleet"/>
    <trip id="135" depart="7281.00" from="1200728225#0" to="1200728225#3" type="hcmc_fleet"/>
    <trip id="136" depart="7281.60" from="1200728225#3" to="1200728225#3" type="hcmc_fleet"/>
    <trip id="137" depart="7282.20" from="1265822568#2" to="1163556238#1" type="hcmc_fleet"/>
    <trip id="138" depart="7282.80" from="1221994726#0" to="1221994726#2" type="hcmc_fleet"/>
    <trip id="139" depart="7283.40" from="1221994726#0" to="1267462159#2" type="hcmc_fleet"/>
    <trip id="140" depart="7284.00" from="1265822568#0" to="1265822568#2" type="hcmc_fleet"/>
    <trip id="141" depart="7284.60" from="1200728225#4" to="1163556238#1" type="hcmc_fleet"/>
    <trip id="142" depart="7285.20" from="1267462159#1" to="1267462159#3" type="hcmc_fleet"/>
    <trip id="143" depart="7285.80" from="1265822568#0" to="1265822568#1" type="hcmc_fleet"/>
    <trip id="144" depart="7286.40" from="1200728225#2" to="1200728225#2" type="hcmc_fleet"/>
    <trip id="145" depart="7287.00" from="1265822568#1" to="1163556238#1" type="hcmc_fleet"/>
    <trip id="146" depart="7287.60" from="1200728225#4" to="1221994726#2" type="hcmc_fleet"/>
    <trip id="147" depart="7288.20" from="1200728225#1" to="1221994726#0" type="hcmc_fleet"/>
    <trip id="148" depart="7288.80" from="1200728225#2" to="1200728225#3" type="hcmc_fleet"/>
    <trip id="149" depart="7289.40" from="1265822568#3" to="1200728225#4" type="hcmc_fleet"/>
    <trip id="150" depart="7290.00" from="1265822568#3" to="1267462159#1" type="hcmc_fleet"/>
    <trip id="151" depart="7290.60" from="-1163556238#1" to="1221994726#2" type="hcmc_fleet"/>
    <trip id="152" depart="7291.20" from="1422795954" to="1200728225#4" type="hcmc_fleet"/>
    <trip id="153" depart="7291.80" from="1265822568#1" to="1265822568#3" type="hcmc_fleet"/>
    <trip id="154" depart="7292.40" from="1265822568#1" to="1265822568#3" type="hcmc_fleet"/>
    <trip id="155" depart="7293.00" from="1422795954" to="1200728225#1" type="hcmc_fleet"/>
    <trip id="156" depart="7293.60" from="1265822568#0" to="1200728225#2" type="hcmc_fleet"/>
    <trip id="157" depart="7294.20" from="1265822568#2" to="1265822568#3" type="hcmc_fleet"/>
    <trip id="158" depart="7294.80" from="1267462159#1" to="1267462159#3" type="hcmc_fleet"/>
    <trip id="159" depart="7295.40" from="1200728225#0" to="1163556238#1" type="hcmc_fleet"/>
    <trip id="160" depart="7296.00" from="1422795954" to="1200728225#4" type="hcmc_fleet"/>
    <trip id="161" depart="7296.60" from="1200728225#0" to="1267462159#3" type="hcmc_fleet"/>
    <trip id="162" depart="7297.20" from="1265822568#3" to="1200728225#4" type="hcmc_fleet"/>
    <trip id="163" depart="7297.80" from="1267462159#1" to="1267462159#1" type="hcmc_fleet"/>
    <trip id="164" depart="7298.40" from="1200728225#0" to="1267462159#3" type="hcmc_fleet"/>
    <trip id="165" depart="7299.00" from="1265822568#1" to="1267462159#1" type="hcmc_fleet"/>
    <trip id="166" depart="7299.60" from="1265822568#2" to="1221994726#0" type="hcmc_fleet"/>
    <trip id="167" depart="7300.20" from="1265822568#3" to="1267462159#3" type="hcmc_fleet"/>
    <trip id="168" depart="7300.80" from="1200728225#3" to="1267462159#1" type="hcmc_fleet"/>
    <trip id="169" depart="7301.40" from="1265822568#0" to="1221994726#1" type="hcmc_fleet"/>
    <trip id="170" depart="7302.00" from="1200728225#3" to="1267462159#1" type="hcmc_fleet"/>
    <trip id="171" depart="7302.60" from="1200728225#4" to="1163556238#1" type="hcmc_fleet"/>
    <trip id="172" depart="7303.20" from="1200728225#4" to="1267462159#2" type="hcmc_fleet"/>
    <trip id="173" depart="7303.80" from="1265822568#2" to="1200728225#3" type="hcmc_fleet"/>
    <trip id="174" depart="7304.40" from="-1163556238#1" to="1267462159#3" type="hcmc_fleet"/>
    <trip id="175" depart="7305.00" from="1200728225#0" to="1200728225#2" type="hcmc_fleet"/>
    <trip id="176" depart="7305.60" from="1265822568#2" to="1200728225#3" type="hcmc_fleet"/>
    <trip id="177" depart="7306.20" from="1265822568#0" to="1221994726#1" type="hcmc_fleet"/>
    <trip id="178" depart="7306.80" from="1265822568#3" to="1200728225#3" type="hcmc_fleet"/>
    <trip id="179" depart="7307.40" from="1265822568#2" to="1200728225#3" type="hcmc_fleet"/>
    <trip id="180" depart="7308.00" from="1265822568#0" to="1265822568#3" type="hcmc_fleet"/>
    <trip id="181" depart="7308.60" from="1200728225#1" to="1200728225#2" type="hcmc_fleet"/>
    <trip id="182" depart="7309.20" from="1422795954" to="1221994726#1" type="hcmc_fleet"/>
    <trip id="183" depart="7309.80" from="1200728225#1" to="1200728225#2" type="hcmc_fleet"/>
    <trip id="184" depart="7310.40" from="1200728225#1" to="1163556238#1" type="hcmc_fleet"/>
    <trip id="185" depart="7311.00" from="1265822568#0" to="1200728225#3" type="hcmc_fleet"/>
    <trip id="186" depart="7311.60" from="1422795954" to="1221994726#2" type="hcmc_fleet"/>
    <trip id="187" depart="7312.20" from="1200728225#1" to="1163556238#1" type="hcmc_fleet"/>
    <trip id="188" depart="7312.80" from="1422795954" to="1221994726#1" type="hcmc_fleet"/>
    <trip id="189" depart="7313.40" from="1265822568#0" to="1200728225#3" type="hcmc_fleet"/>
    <trip id="190" depart="7314.00" from="1422795954" to="1200728225#0" type="hcmc_fleet"/>
    <trip id="191" depart="7314.60" from="1265822568#3" to="1200728225#2" type="hcmc_fleet"/>
    <trip id="192" depart="7315.20" from="1221994726#0" to="1267462159#1" type="hcmc_fleet"/>
    <trip id="193" depart="7315.80" from="1422795954" to="1200728225#3" type="hcmc_fleet"/>
    <trip id="194" depart="7316.40" from="1265822568#1" to="1265822568#1" type="hcmc_fleet"/>
    <trip id="195" depart="7317.00" from="1265822568#3" to="1267462159#3" type="hcmc_fleet"/>
    <trip id="196" depart="7317.60" from="1200728225#2" to="1200728225#2" type="hcmc_fleet"/>
    <trip id="197" depart="7318.20" from="-1163556238#1" to="1221994726#0" type="hcmc_fleet"/>
    <trip id="198" depart="7318.80" from="1265822568#0" to="1200728225#3" type="hcmc_fleet"/>
    <trip id="199" depart="7319.40" from="1265822568#2" to="1221994726#0" type="hcmc_fleet"/>
    <trip id="200" depart="7320.00" from="1265822568#2" to="1267462159#2" type="hcmc_fleet"/>
    <trip id="201" depart="7320.60" from="1265822568#1" to="1267462159#3" type="hcmc_fleet"/>
    <trip id="202" depart="7321.20" from="1221994726#0" to="1221994726#2" type="hcmc_fleet"/>
    <trip id="203" depart="7321.80" from="1265822568#1" to="1267462159#2" type="hcmc_fleet"/>
    <trip id="204" depart="7322.40" from="1200728225#1" to="1200728225#3" type="hcmc_fleet"/>
    <trip id="205" depart="7323.00" from="1265822568#3" to="1221994726#2" type="hcmc_fleet"/>
    <trip id="206" depart="7323.60" from="1265822568#2" to="1265822568#2" type="hcmc_fleet"/>
    <trip id="207" depart="7324.20" from="1422795954" to="1221994726#1" type="hcmc_fleet"/>
    <trip id="208" depart="7324.80" from="-1163556238#1" to="1221994726#0" type="hcmc_fleet"/>
    <trip id="209" depart="7325.40" from="1200728225#0" to="1267462159#3" type="hcmc_fleet"/>
    <trip id="210" depart="7326.00" from="1422795954" to="1267462159#3" type="hcmc_fleet"/>
    <trip id="211" depart="7326.60" from="1265822568#2" to="1200728225#3" type="hcmc_fleet"/>
    <trip id="212" depart="7327.20" from="1265822568#0" to="1265822568#1" type="hcmc_fleet"/>
    <trip id="213" depart="7327.80" from="1265822568#2" to="1267462159#1" type="hcmc_fleet"/>
    <trip id="214" depart="7328.40" from="1200728225#3" to="1267462159#3" type="hcmc_fleet"/>
    <trip id="215" depart="7329.00" from="1200728225#3" to="1267462159#3" type="hcmc_fleet"/>
    <trip id="216" depart="7329.60" from="1221994726#0" to="1221994726#1" type="hcmc_fleet"/>
    <trip id="217" depart="7330.20" from="1265822568#0" to="1221994726#0" type="hcmc_fleet"/>
    <trip id="218" depart="7330.80" from="1200728225#1" to="1200728225#4" type="hcmc_fleet"/>
    <trip id="219" depart="7331.40" from="1265822568#3" to="1200728225#2" type="hcmc_fleet"/>
    <trip id="220" depart="7332.00" from="1265822568#0" to="1267462159#2" type="hcmc_fleet"/>
    <trip id="221" depart="7332.60" from="1200728225#0" to="1267462159#3" type="hcmc_fleet"/>
    <trip id="222" depart="7333.20" from="1265822568#1" to="1200728225#2" type="hcmc_fleet"/>
    <trip id="223" depart="7333.80" from="1200728225#1" to="1221994726#2" type="hcmc_fleet"/>
    <trip id="224" depart="7334.40" from="1422795954" to="1267462159#2" type="hcmc_fleet"/>
    <trip id="225" depart="7335.00" from="1265822568#2" to="1221994726#1" type="hcmc_fleet"/>
    <trip id="226" depart="7335.60" from="1200728225#3" to="1267462159#1" type="hcmc_fleet"/>
    <trip id="227" depart="7336.20" from="1422795954" to="1200728225#2" type="hcmc_fleet"/>
    <trip id="228" depart="7336.80" from="1265822568#0" to="1200728225#4" type="hcmc_fleet"/>
    <trip id="229" depart="7337.40" from="1221994726#0" to="1267462159#3" type="hcmc_fleet"/>
    <trip id="230" depart="7338.00" from="1200728225#3" to="1200728225#3" type="hcmc_fleet"/>
    <trip id="231" depart="7338.60" from="1265822568#0" to="1267462159#3" type="hcmc_fleet"/>
    <trip id="232" depart="7339.20" from="1265822568#0" to="1200728225#4" type="hcmc_fleet"/>
    <trip id="233" depart="7339.80" from="1265822568#0" to="1221994726#2" type="hcmc_fleet"/>
    <trip id="234" depart="7340.40" from="1265822568#0" to="1200728225#2" type="hcmc_fleet"/>
    <trip id="235" depart="7341.00" from="1265822568#3" to="1163556238#1" type="hcmc_fleet"/>
    <trip id="236" depart="7341.60" from="1265822568#1" to="1267462159#1" type="hcmc_fleet"/>
    <trip id="237" depart="7342.20" from="1422795954" to="1221994726#1" type="hcmc_fleet"/>
    <trip id="238" depart="7342.80" from="-1163556238#1" to="1221994726#1" type="hcmc_fleet"/>
    <trip id="239" depart="7343.40" from="1265822568#0" to="1267462159#2" type="hcmc_fleet"/>
    <trip id="240" depart="7344.00" from="1265822568#2" to="1221994726#0" type="hcmc_fleet"/>
    <trip id="241" depart="7344.60" from="1265822568#1" to="1267462159#1" type="hcmc_fleet"/>
    <trip id="242" depart="7345.20" from="1267462159#1" to="1267462159#1" type="hcmc_fleet"/>
    <trip id="243" depart="7345.80" from="1265822568#2" to="1265822568#3" type="hcmc_fleet"/>
    <trip id="244" depart="7346.40" from="1267462159#2" to="1267462159#3" type="hcmc_fleet"/>
    <trip id="245" depart="7347.00" from="1265822568#3" to="1221994726#0" type="hcmc_fleet"/>
    <trip id="246" depart="7347.60" from="1265822568#2" to="1267462159#2" type="hcmc_fleet"/>
    <trip id="247" depart="7348.20" from="1200728225#3" to="1200728225#4" type="hcmc_fleet"/>
    <trip id="248" depart="7348.80" from="1200728225#1" to="1221994726#1" type="hcmc_fleet"/>
    <trip id="249" depart="7349.40" from="1265822568#0" to="1265822568#3" type="hcmc_fleet"/>
    <trip id="250" depart="7350.00" from="1200728225#2" to="1267462159#2" type="hcmc_fleet"/>
    <trip id="251" depart="7350.60" from="1200728225#1" to="1221994726#0" type="hcmc_fleet"/>
    <trip id="252" depart="7351.20" from="1200728225#2" to="1200728225#2" type="hcmc_fleet"/>
    <trip id="253" depart="7351.80" from="-1163556238#1" to="1267462159#1" type="hcmc_fleet"/>
    <trip id="254" depart="7352.40" from="1200728225#1" to="1221994726#0" type="hcmc_fleet"/>
    <trip id="255" depart="7353.00" from="1200728225#4" to="1221994726#2" type="hcmc_fleet"/>
    <trip id="256" depart="7353.60" from="1265822568#1" to="1221994726#0" type="hcmc_fleet"/>
    <trip id="257" depart="7354.20" from="1200728225#2" to="1267462159#1" type="hcmc_fleet"/>
    <trip id="258" depart="7354.80" from="1200728225#1" to="1200728225#4" type="hcmc_fleet"/>
    <trip id="259" depart="7355.40" from="1265822568#0" to="1221994726#2" type="hcmc_fleet"/>
    <trip id="260" depart="7356.00" from="1422795954" to="1200728225#3" type="hcmc_fleet"/>
    <trip id="261" depart="7356.60" from="1200728225#3" to="1221994726#2" type="hcmc_fleet"/>
    <trip id="262" depart="7357.20" from="1265822568#2" to="1265822568#3" type="hcmc_fleet"/>
    <trip id="263" depart="7357.80" from="1265822568#1" to="1200728225#4" type="hcmc_fleet"/>
    <trip id="264" depart="7358.40" from="1265822568#1" to="1265822568#1" type="hcmc_fleet"/>
    <trip id="265" depart="7359.00" from="1265822568#2" to="1265822568#2" type="hcmc_fleet"/>
    <trip id="266" depart="7359.60" from="1265822568#1" to="1267462159#1" type="hcmc_fleet"/>
    <trip id="267" depart="7360.20" from="1265822568#1" to="1267462159#2" type="hcmc_fleet"/>
    <trip id="268" depart="7360.80" from="1265822568#1" to="1200728225#3" type="hcmc_fleet"/>
    <trip id="269" depart="7361.40" from="1221994726#0" to="1221994726#2" type="hcmc_fleet"/>
    <trip id="270" depart="7362.00" from="1265822568#0" to="1267462159#3" type="hcmc_fleet"/>
    <trip id="271" depart="7362.60" from="1422795954" to="1200728225#1" type="hcmc_fleet"/>
    <trip id="272" depart="7363.20" from="1422795954" to="1267462159#1" type="hcmc_fleet"/>
    <trip id="273" depart="7363.80" from="1265822568#2" to="1267462159#3" type="hcmc_fleet"/>
    <trip id="274" depart="7364.40" from="1422795954" to="1267462159#1" type="hcmc_fleet"/>
    <trip id="275" depart="7365.00" from="-1163556238#1" to="1221994726#2" type="hcmc_fleet"/>
    <trip id="276" depart="7365.60" from="1265822568#2" to="1221994726#2" type="hcmc_fleet"/>
    <trip id="277" depart="7366.20" from="1267462159#1" to="1267462159#3" type="hcmc_fleet"/>
    <trip id="278" depart="7366.80" from="1200728225#0" to="1200728225#2" type="hcmc_fleet"/>
    <trip id="279" depart="7367.40" from="-1163556238#1" to="1267462159#2" type="hcmc_fleet"/>
    <trip id="280" depart="7368.00" from="1265822568#0" to="1267462159#2" type="hcmc_fleet"/>
    <trip id="281" depart="7368.60" from="1200728225#2" to="1163556238#1" type="hcmc_fleet"/>
    <trip id="282" depart="7369.20" from="1267462159#1" to="1267462159#2" type="hcmc_fleet"/>
    <trip id="283" depart="7369.80" from="1200728225#3" to="1221994726#0" type="hcmc_fleet"/>
    <trip id="284" depart="7370.40" from="1200728225#1" to="1267462159#3" type="hcmc_fleet"/>
    <trip id="285" depart="7371.00" from="1200728225#3" to="1221994726#1" type="hcmc_fleet"/>
    <trip id="286" depart="7371.60" from="1200728225#0" to="1267462159#2" type="hcmc_fleet"/>
    <trip id="287" depart="7372.20" from="1200728225#1" to="1221994726#0" type="hcmc_fleet"/>
    <trip id="288" depart="7372.80" from="1265822568#2" to="1265822568#3" type="hcmc_fleet"/>
    <trip id="289" depart="7373.40" from="1422795954" to="1221994726#0" type="hcmc_fleet"/>
    <trip id="290" depart="7374.00" from="1422795954" to="1163556238#1" type="hcmc_fleet"/>
    <trip id="291" depart="7374.60" from="1200728225#4" to="1221994726#0" type="hcmc_fleet"/>
    <trip id="292" depart="7375.20" from="1422795954" to="1267462159#1" type="hcmc_fleet"/>
    <trip id="293" depart="7375.80" from="1265822568#0" to="1267462159#3" type="hcmc_fleet"/>
    <trip id="294" depart="7376.40" from="1200728225#4" to="1200728225#4" type="hcmc_fleet"/>
    <trip id="295" depart="7377.00" from="1265822568#1" to="1265822568#1" type="hcmc_fleet"/>
    <trip id="296" depart="7377.60" from="1265822568#0" to="1163556238#1" type="hcmc_fleet"/>
    <trip id="297" depart="7378.20" from="1265822568#3" to="1200728225#2" type="hcmc_fleet"/>
    <trip id="298" depart="7378.80" from="1200728225#0" to="1221994726#2" type="hcmc_fleet"/>
    <trip id="299" depart="7379.40" from="1200728225#2" to="1200728225#2" type="hcmc_fleet"/>
    <trip id="300" depart="7380.00" from="1200728225#1" to="1267462159#2" type="hcmc_fleet"/>
    <trip id="301" depart="7380.60" from="-1163556238#1" to="1267462159#1" type="hcmc_fleet"/>
    <trip id="302" depart="7381.20" from="1265822568#1" to="1163556238#1" type="hcmc_fleet"/>
    <trip id="303" depart="7381.80" from="1200728225#2" to="1200728225#3" type="hcmc_fleet"/>
    <trip id="304" depart="7382.40" from="1200728225#1" to="1163556238#1" type="hcmc_fleet"/>
    <trip id="305" depart="7383.00" from="1265822568#3" to="1221994726#1" type="hcmc_fleet"/>
    <trip id="306" depart="7383.60" from="1265822568#3" to="1221994726#1" type="hcmc_fleet"/>
    <trip id="307" depart="7384.20" from="1265822568#3" to="1221994726#1" type="hcmc_fleet"/>
    <trip id="308" depart="7384.80" from="1200728225#0" to="1221994726#1" type="hcmc_fleet"/>
    <trip id="309" depart="7385.40" from="1422795954" to="1163556238#1" type="hcmc_fleet"/>
    <trip id="310" depart="7386.00" from="1265822568#3" to="1267462159#2" type="hcmc_fleet"/>
    <trip id="311" depart="7386.60" from="1422795954" to="1163556238#1" type="hcmc_fleet"/>
    <trip id="312" depart="7387.20" from="1265822568#2" to="1221994726#1" type="hcmc_fleet"/>