<?xml version='1.0' encoding='utf-8'?>
<routes xmlns:xsi="http://www.w3.org/2001/XMLSchema-instance" xsi:noNamespaceSchemaLocation="http://sumo.dlr.de/xsd/routes_file.xsd">
    <trip id="1" depart="0.00" from="1265822568#1" to="1163556238#1" type="hcmc_fleet" />
    <trip id="2" depart="2.00" from="1200728225#2" to="1221994726#1" type="hcmc_fleet" />
    <trip id="3" depart="4.00" from="1265822568#1" to="1221994726#2" type="hcmc_fleet" />
    <trip id="4" depart="6.00" from="1200728225#2" to="1221994726#2" type="hcmc_fleet" />
    <trip id="5" depart="8.00" from="1422795954" to="1200728225#4" type="hcmc_fleet" />
    <trip id="6" depart="10.00" from="1200728225#0" to="1200728225#0" type="hcmc_fleet" />
    <trip id="7" depart="12.00" from="1265822568#0" to="1267462159#3" type="hcmc_fleet" />
    <trip id="8" depart="14.00" from="1200728225#4" to="1221994726#2" type="hcmc_fleet" />
    <trip id="9" depart="16.00" from="1265822568#2" to="1163556238#1" type="hcmc_fleet" />
    <trip id="10" depart="18.00" from="1200728225#2" to="1200728225#3" type="hcmc_fleet" />
    <trip id="11" depart="20.00" from="1200728225#0" to="1200728225#2" type="hcmc_fleet" />
    <trip id="12" depart="22.00" from="1200728225#0" to="1200728225#3" type="hcmc_fleet" />
    <trip id="13" depart="24.00" from="1265822568#1" to="1200728225#4" type="hcmc_fleet" />
    <trip id="14" depart="26.00" from="1200728225#3" to="1267462159#3" type="hcmc_fleet" />
    <trip id="15" depart="28.00" from="1265822568#1" to="1265822568#1" type="hcmc_fleet" />
    <trip id="16" depart="30.00" from="1200728225#1" to="1200728225#4" type="hcmc_fleet" />
    <trip id="17" depart="32.00" from="1265822568#0" to="1265822568#2" type="hcmc_fleet" />
    <trip id="18" depart="34.00" from="1200728225#2" to="1163556238#1" type="hcmc_fleet" />
    <trip id="19" depart="36.00" from="1200728225#3" to="1200728225#3" type="hcmc_fleet" />
    <trip id="20" depart="38.00" from="1200728225#2" to="1267462159#3" type="hcmc_fleet" />
    <trip id="21" depart="40.00" from="1265822568#1" to="1200728225#4" type="hcmc_fleet" />
    <trip id="22" depart="42.00" from="1200728225#2" to="1200728225#2" type="hcmc_fleet" />
    <trip id="23" depart="44.00" from="1265822568#0" to="1200728225#2" type="hcmc_fleet" />
    <trip id="24" depart="46.00" from="1265822568#0" to="1267462159#2" type="hcmc_fleet" />
    <trip id="25" depart="48.00" from="1422795954" to="1221994726#1" type="hcmc_fleet" />
    <trip id="26" depart="50.00" from="1200728225#0" to="1163556238#1" type="hcmc_fleet" />
    <trip id="27" depart="52.00" from="1265822568#3" to="1221994726#0" type="hcmc_fleet" />
    <trip id="28" depart="54.00" from="1422795954" to="1221994726#1" type="hcmc_fleet" />
    <trip id="29" depart="56.00" from="1422795954" to="1267462159#1" type="hcmc_fleet" />
    <trip id="30" depart="58.00" from="1265822568#2" to="1221994726#2" type="hcmc_fleet" />
    <trip id="31" depart="60.00" from="1200728225#0" to="1221994726#0" type="hcmc_fleet" />
    <trip id="32" depart="62.00" from="1221994726#0" to="1267462159#3" type="hcmc_fleet" />
    <trip id="33" depart="64.00" from="1267462159#2" to="1267462159#2" type="hcmc_fleet" />
    <trip id="34" depart="66.00" from="1265822568#3" to="1221994726#2" type="hcmc_fleet" />
    <trip id="35" depart="68.00" from="1265822568#3" to="1221994726#1" type="hcmc_fleet" />
    <trip id="36" depart="70.00" from="-1163556238#1" to="1267462159#2" type="hcmc_fleet" />
    <trip id="37" depart="72.00" from="1200728225#3" to="1163556238#1" type="hcmc_fleet" />
    <trip id="38" depart="74.00" from="1267462159#2" to="1267462159#3" type="hcmc_fleet" />
    <trip id="39" depart="76.00" from="1200728225#0" to="1221994726#1" type="hcmc_fleet" />
    <trip id="40" depart="78.00" from="1221994726#1" to="1221994726#2" type="hcmc_fleet" />
    <trip id="41" depart="80.00" from="1200728225#2" to="1267462159#2" type="hcmc_fleet" />
    <trip id="42" depart="82.00" from="1265822568#0" to="1265822568#2" type="hcmc_fleet" />
    <trip id="43" depart="84.00" from="1200728225#2" to="1200728225#3" type="hcmc_fleet" />
    <trip id="44" depart="86.00" from="1221994726#0" to="1221994726#1" type="hcmc_fleet" />
    <trip id="45" depart="88.00" from="1200728225#0" to="1200728225#2" type="hcmc_fleet" />
    <trip id="46" depart="90.00" from="1200728225#4" to="1221994726#2" type="hcmc_fleet" />
    <trip id="47" depart="92.00" from="1200728225#2" to="1200728225#2" type="hcmc_fleet" />
    <trip id="48" depart="94.00" from="1200728225#2" to="1267462159#2" type="hcmc_fleet" />
    <trip id="49" depart="96.00" from="1422795954" to="1221994726#2" type="hcmc_fleet" />
    <trip id="50" depart="98.00" from="1200728225#0" to="1221994726#0" type="hcmc_fleet" />
    <trip id="51" depart="100.00" from="1221994726#0" to="1221994726#1" type="hcmc_fleet" />
    <trip id="52" depart="102.00" from="1265822568#2" to="1265822568#2" type="hcmc_fleet" />
    <trip id="53" depart="104.00" from="1422795954" to="1200728225#0" type="hcmc_fleet" />
    <trip id="54" depart="106.00" from="1200728225#1" to="1221994726#0" type="hcmc_fleet" />
    <trip id="55" depart="108.00" from="1200728225#2" to="1267462159#2" type="hcmc_fleet" />
    <trip id="56" depart="110.00" from="1221994726#0" to="1267462159#1" type="hcmc_fleet" />
    <trip id="57" depart="112.00" from="1265822568#0" to="1163556238#1" type="hcmc_fleet" />
    <trip id="58" depart="114.00" from="1422795954" to="1267462159#1" type="hcmc_fleet" />
    <trip id="59" depart="116.00" from="1422795954" to="1267462159#2" type="hcmc_fleet" />
    <trip id="60" depart="118.00" from="1200728225#4" to="1267462159#3" type="hcmc_fleet" />
    <trip id="61" depart="120.00" from="1221994726#0" to="1221994726#0" type="hcmc_fleet" />
    <trip id="62" depart="122.00" from="1422795954" to="1267462159#3" type="hcmc_fleet" />
    <trip id="63" depart="124.00" from="1265822568#0" to="1265822568#2" type="hcmc_fleet" />
    <trip id="64" depart="126.00" from="1200728225#1" to="1200728225#3" type="hcmc_fleet" />
    <trip id="65" depart="128.00" from="1422795954" to="1221994726#2" type="hcmc_fleet" />
    <trip id="66" depart="130.00" from="1265822568#0" to="1265822568#3" type="hcmc_fleet" />
    <trip id="67" depart="132.00" from="-1163556238#1" to="1221994726#2" type="hcmc_fleet" />
    <trip id="68" depart="134.00" from="1200728225#1" to="1267462159#3" type="hcmc_fleet" />
    <trip id="69" depart="136.00" from="1200728225#0" to="1200728225#1" type="hcmc_fleet" />
    <trip id="70" depart="138.00" from="1265822568#0" to="1265822568#2" type="hcmc_fleet" />
    <trip id="71" depart="140.00" from="1265822568#0" to="1265822568#1" type="hcmc_fleet" />
    <trip id="72" depart="142.00" from="1221994726#0" to="1221994726#2" type="hcmc_fleet" />
    <trip id="73" depart="144.00" from="1200728225#2" to="1200728225#4" type="hcmc_fleet" />
    <trip id="74" depart="146.00" from="1265822568#2" to="1200728225#3" type="hcmc_fleet" />
    <trip id="75" depart="148.00" from="1200728225#0" to="1221994726#0" type="hcmc_fleet" />
    <trip id="76" depart="150.00" from="1422795954" to="1267462159#3" type="hcmc_fleet" />
    <trip id="77" depart="152.00" from="1200728225#0" to="1200728225#2" type="hcmc_fleet" />
    <trip id="78" depart="154.00" from="1200728225#2" to="1267462159#2" type="hcmc_fleet" />
    <trip id="79" depart="156.00" from="1267462159#2" to="1267462159#2" type="hcmc_fleet" />
    <trip id="80" depart="158.00" from="1265822568#1" to="1267462159#3" type="hcmc_fleet" />
    <trip id="81" depart="160.00" from="1265822568#1" to="1163556238#1" type="hcmc_fleet" />
    <trip id="82" depart="162.00" from="1265822568#1" to="1267462159#3" type="hcmc_fleet" />
    <trip id="83" depart="164.00" from="1200728225#0" to="1221994726#2" type="hcmc_fleet" />
    <trip id="84" depart="166.00" from="1265822568#2" to="1200728225#2" type="hcmc_fleet" />
    <trip id="85" depart="168.00" from="1265822568#1" to="1200728225#2" type="hcmc_fleet" />
    <trip id="86" depart="170.00" from="1265822568#1" to="1200728225#2" type="hcmc_fleet" />
    <trip id="87" depart="172.00" from="1265822568#3" to="1221994726#2" type="hcmc_fleet" />
    <trip id="88" depart="174.00" from="1200728225#0" to="1267462159#2" type="hcmc_fleet" />
    <trip id="89" depart="176.00" from="1200728225#3" to="1267462159#2" type="hcmc_fleet" />
    <trip id="90" depart="178.00" from="1265822568#3" to="1267462159#1" type="hcmc_fleet" />
    <trip id="91" depart="180.00" from="1265822568#3" to="1267462159#2" type="hcmc_fleet" />
    <trip id="92" depart="182.00" from="1200728225#1" to="1267462159#2" type="hcmc_fleet" />
    <trip id="93" depart="184.00" from="1267462159#1" to="1267462159#3" type="hcmc_fleet" />
    <trip id="94" depart="186.00" from="1267462159#1" to="1267462159#2" type="hcmc_fleet" />
    <trip id="95" depart="188.00" from="1200728225#3" to="1267462159#2" type="hcmc_fleet" />
    <trip id="96" depart="190.00" from="1267462159#1" to="1267462159#1" type="hcmc_fleet" />
    <trip id="97" depart="192.00" from="1200728225#2" to="1267462159#1" type="hcmc_fleet" />
    <trip id="98" depart="194.00" from="1265822568#3" to="1200728225#2" type="hcmc_fleet" />
    <trip id="99" depart="196.00" from="1200728225#3" to="1267462159#1" type="hcmc_fleet" />
    <trip id="100" depart="198.00" from="1422795954" to="1200728225#3" type="hcmc_fleet" />
    <trip id="101" depart="200.00" from="1265822568#1" to="1200728225#4" type="hcmc_fleet" />
    <trip id="102" depart="202.00" from="1422795954" to="1221994726#2" type="hcmc_fleet" />
    <trip id="103" depart="204.00" from="1422795954" to="1200728225#0" type="hcmc_fleet" />
    <trip id="104" depart="206.00" from="1422795954" to="1200728225#1" type="hcmc_fleet" />
    <trip id="105" depart="208.00" from="1422795954" to="1200728225#2" type="hcmc_fleet" />
    <trip id="106" depart="210.00" from="1200728225#0" to="1221994726#0" type="hcmc_fleet" />
    <trip id="107" depart="212.00" from="1265822568#2" to="1200728225#3" type="hcmc_fleet" />
    <trip id="108" depart="214.00" from="1265822568#1" to="1221994726#1" type="hcmc_fleet" />
    <trip id="109" depart="216.00" from="1200728225#4" to="1221994726#2" type="hcmc_fleet" />
    <trip id="110" depart="218.00" from="-1163556238#1" to="1267462159#2" type="hcmc_fleet" />
    <trip id="111" depart="220.00" from="1265822568#0" to="1265822568#2" type="hcmc_fleet" />
    <trip id="112" depart="222.00" from="1265822568#1" to="1200728225#3" type="hcmc_fleet" />
    <trip id="113" depart="224.00" from="1200728225#3" to="1267462159#1" type="hcmc_fleet" />
    <trip id="114" depart="226.00" from="1265822568#2" to="1200728225#3" type="hcmc_fleet" />
    <trip id="115" depart="228.00" from="1200728225#3" to="1221994726#0" type="hcmc_fleet" />
    <trip id="116" depart="230.00" from="1200728225#0" to="1221994726#0" type="hcmc_fleet" />
    <trip id="117" depart="232.00" from="1200728225#3" to="1221994726#2" type="hcmc_fleet" />
    <trip id="118" depart="234.00" from="1221994726#0" to="1221994726#2" type="hcmc_fleet" />
    <trip id="119" depart="236.00" from="1265822568#1" to="1221994726#0" type="hcmc_fleet" />
    <trip id="120" depart="238.00" from="1200728225#0" to="1221994726#1" type="hcmc_fleet" />
    <trip id="121" depart="240.00" from="1265822568#1" to="1200728225#4" type="hcmc_fleet" />
    <trip id="122" depart="242.00" from="1265822568#2" to="1200728225#2" type="hcmc_fleet" />
    <trip id="123" depart="244.00" from="1200728225#1" to="1163556238#1" type="hcmc_fleet" />
    <trip id="124" depart="246.00" from="1200728225#2" to="1221994726#1" type="hcmc_fleet" />
    <trip id="125" depart="248.00" from="1265822568#1" to="1163556238#1" type="hcmc_fleet" />
    <trip id="126" depart="250.00" from="1265822568#3" to="1265822568#3" type="hcmc_fleet" />
    <trip id="127" depart="252.00" from="1200728225#0" to="1221994726#0" type="hcmc_fleet" />
    <trip id="128" depart="254.00" from="1200728225#1" to="1267462159#3" type="hcmc_fleet" />
    <trip id="129" depart="256.00" from="1200728225#2" to="1267462159#1" type="hcmc_fleet" />
    <trip id="130" depart="258.00" from="1221994726#0" to="1267462159#1" type="hcmc_fleet" />
    <trip id="131" depart="260.00" from="1265822568#2" to="1267462159#3" type="hcmc_fleet" />
    <trip id="132" depart="262.00" from="1265822568#0" to="1267462159#3" type="hcmc_fleet" />
    <trip id="133" depart="264.00" from="1265822568#2" to="1221994726#1" type="hcmc_fleet" />
    <trip id="134" depart="266.00" from="1265822568#3" to="1221994726#1" type="hcmc_fleet" />
    <trip id="135" depart="268.00" from="1265822568#1" to="1200728225#3" type="hcmc_fleet" />
    <trip id="136" depart="270.00" from="1200728225#0" to="1200728225#3" type="hcmc_fleet" />
    <trip id="137" depart="272.00" from="1200728225#3" to="1200728225#3" type="hcmc_fleet" />
    <trip id="138" depart="274.00" from="1265822568#2" to="1163556238#1" type="hcmc_fleet" />
    <trip id="139" depart="276.00" from="1221994726#0" to="1221994726#2" type="hcmc_fleet" />
    <trip id="140" depart="278.00" from="1221994726#0" to="1267462159#2" type="hcmc_fleet" />
    <trip id="141" depart="280.00" from="1265822568#0" to="1265822568#2" type="hcmc_fleet" />
    <trip id="142" depart="282.00" from="1200728225#4" to="1163556238#1" type="hcmc_fleet" />
    <trip id="143" depart="284.00" from="1267462159#1" to="1267462159#3" type="hcmc_fleet" />
    <trip id="144" depart="286.00" from="1265822568#0" to="1265822568#1" type="hcmc_fleet" />
    <trip id="145" depart="288.00" from="1200728225#2" to="1200728225#2" type="hcmc_fleet" />
    <trip id="146" depart="290.00" from="1265822568#1" to="1163556238#1" type="hcmc_fleet" />
    <trip id="147" depart="292.00" from="1200728225#4" to="1221994726#2" type="hcmc_fleet" />
    <trip id="148" depart="294.00" from="1200728225#1" to="1221994726#0" type="hcmc_fleet" />
    <trip id="149" depart="296.00" from="1200728225#2" to="1200728225#3" type="hcmc_fleet" />
    <trip id="150" depart="298.00" from="1265822568#3" to="1200728225#4" type="hcmc_fleet" />
    <trip id="151" depart="300.00" from="1265822568#3" to="1267462159#1" type="hcmc_fleet" />
    <trip id="152" depart="302.00" from="-1163556238#1" to="1221994726#2" type="hcmc_fleet" />
    <trip id="153" depart="304.00" from="1422795954" to="1200728225#4" type="hcmc_fleet" />
    <trip id="154" depart="306.00" from="1265822568#1" to="1265822568#3" type="hcmc_fleet" />
    <trip id="155" depart="308.00" from="1265822568#1" to="1265822568#3" type="hcmc_fleet" />
    <trip id="156" depart="310.00" from="1422795954" to="1200728225#1" type="hcmc_fleet" />
    <trip id="157" depart="312.00" from="1265822568#0" to="1200728225#2" type="hcmc_fleet" />
    <trip id="158" depart="314.00" from="1265822568#2" to="1265822568#3" type="hcmc_fleet" />
    <trip id="159" depart="316.00" from="1267462159#1" to="1267462159#3" type="hcmc_fleet" />
    <trip id="160" depart="318.00" from="1200728225#0" to="1163556238#1" type="hcmc_fleet" />
    <trip id="161" depart="320.00" from="1422795954" to="1200728225#4" type="hcmc_fleet" />
    <trip id="162" depart="322.00" from="1200728225#0" to="1267462159#3" type="hcmc_fleet" />
    <trip id="163" depart="324.00" from="1265822568#3" to="1200728225#4" type="hcmc_fleet" />
    <trip id="164" depart="326.00" from="1267462159#1" to="1267462159#1" type="hcmc_fleet" />
    <trip id="165" depart="328.00" from="1200728225#0" to="1267462159#3" type="hcmc_fleet" />
    <trip id="166" depart="330.00" from="1265822568#1" to="1267462159#1" type="hcmc_fleet" />
    <trip id="167" depart="332.00" from="1265822568#2" to="1221994726#0" type="hcmc_fleet" />
    <trip id="168" depart="334.00" from="1265822568#3" to="1267462159#3" type="hcmc_fleet" />
    <trip id="169" depart="336.00" from="1200728225#3" to="1267462159#1" type="hcmc_fleet" />
    <trip id="170" depart="338.00" from="1265822568#0" to="1221994726#1" type="hcmc_fleet" />
    <trip id="171" depart="340.00" from="1200728225#3" to="1267462159#1" type="hcmc_fleet" />
    <trip id="172" depart="342.00" from="1200728225#4" to="1163556238#1" type="hcmc_fleet" />
    <trip id="173" depart="344.00" from="1200728225#4" to="1267462159#2" type="hcmc_fleet" />
    <trip id="174" depart="346.00" from="1265822568#2" to="1200728225#3" type="hcmc_fleet" />
    <trip id="175" depart="348.00" from="-1163556238#1" to="1267462159#3" type="hcmc_fleet" />
    <trip id="176" depart="350.00" from="1200728225#0" to="1200728225#2" type="hcmc_fleet" />
    <trip id="177" depart="352.00" from="1265822568#2" to="1200728225#3" type="hcmc_fleet" />
    <trip id="178" depart="354.00" from="1265822568#0" to="1221994726#1" type="hcmc_fleet" />
    <trip id="179" depart="356.00" from="1265822568#3" to="1200728225#3" type="hcmc_fleet" />
    <trip id="180" depart="358.00" from="1265822568#2" to="1200728225#3" type="hcmc_fleet" />
    <trip id="181" depart="360.00" from="1265822568#0" to="1265822568#3" type="hcmc_fleet" />
    <trip id="182" depart="362.00" from="1200728225#1" to="1200728225#2" type="hcmc_fleet" />
    <trip id="183" depart="364.00" from="1422795954" to="1221994726#1" type="hcmc_fleet" />
    <trip id="184" depart="366.00" from="1200728225#1" to="1200728225#2" type="hcmc_fleet" />
    <trip id="185" depart="368.00" from="1200728225#1" to="1163556238#1" type="hcmc_fleet" />
    <trip id="186" depart="370.00" from="1265822568#0" to="1200728225#3" type="hcmc_fleet" />
    <trip id="187" depart="372.00" from="1422795954" to="1221994726#2" type="hcmc_fleet" />
    <trip id="188" depart="374.00" from="1200728225#1" to="1163556238#1" type="hcmc_fleet" />
    <trip id="189" depart="376.00" from="1422795954" to="1221994726#1" type="hcmc_fleet" />
    <trip id="190" depart="378.00" from="1265822568#0" to="1200728225#3" type="hcmc_fleet" />
    <trip id="191" depart="380.00" from="1422795954" to="1200728225#0" type="hcmc_fleet" />
    <trip id="192" depart="382.00" from="1265822568#3" to="1200728225#2" type="hcmc_fleet" />
    <trip id="193" depart="384.00" from="1221994726#0" to="1267462159#1" type="hcmc_fleet" />
    <trip id="194" depart="386.00" from="1422795954" to="1200728225#3" type="hcmc_fleet" />
    <trip id="195" depart="388.00" from="1265822568#1" to="1265822568#1" type="hcmc_fleet" />
    <trip id="196" depart="390.00" from="1265822568#3" to="1267462159#3" type="hcmc_fleet" />
    <trip id="197" depart="392.00" from="1200728225#2" to="1200728225#2" type="hcmc_fleet" />
    <trip id="198" depart="394.00" from="-1163556238#1" to="1221994726#0" type="hcmc_fleet" />
    <trip id="199" depart="396.00" from="1265822568#0" to="1200728225#3" type="hcmc_fleet" />
    <trip id="200" depart="398.00" from="1265822568#2" to="1221994726#0" type="hcmc_fleet" />
    <trip id="201" depart="400.00" from="1265822568#2" to="1267462159#2" type="hcmc_fleet" />
    <trip id="202" depart="402.00" from="1265822568#1" to="1267462159#3" type="hcmc_fleet" />
    <trip id="203" depart="404.00" from="1221994726#0" to="1221994726#2" type="hcmc_fleet" />
    <trip id="204" depart="406.00" from="1265822568#1" to="1267462159#2" type="hcmc_fleet" />
    <trip id="205" depart="408.00" from="1200728225#1" to="1200728225#3" type="hcmc_fleet" />
    <trip id="206" depart="410.00" from="1265822568#3" to="1221994726#2" type="hcmc_fleet" />
    <trip id="207" depart="412.00" from="1265822568#2" to="1265822568#2" type="hcmc_fleet" />
    <trip id="208" depart="414.00" from="1422795954" to="1221994726#1" type="hcmc_fleet" />
    <trip id="209" depart="416.00" from="-1163556238#1" to="1221994726#0" type="hcmc_fleet" />
    <trip id="210" depart="418.00" from="1200728225#0" to="1267462159#3" type="hcmc_fleet" />
    <trip id="211" depart="420.00" from="1422795954" to="1267462159#3" type="hcmc_fleet" />
    <trip id="212" depart="422.00" from="1265822568#2" to="1200728225#3" type="hcmc_fleet" />
    <trip id="213" depart="424.00" from="1265822568#0" to="1265822568#1" type="hcmc_fleet" />
    <trip id="214" depart="426.00" from="1265822568#2" to="1267462159#1" type="hcmc_fleet" />
    <trip id="215" depart="428.00" from="1200728225#3" to="1267462159#3" type="hcmc_fleet" />
    <trip id="216" depart="430.00" from="1200728225#3" to="1267462159#3" type="hcmc_fleet" />
    <trip id="217" depart="432.00" from="1221994726#0" to="1221994726#1" type="hcmc_fleet" />
    <trip id="218" depart="434.00" from="1265822568#0" to="1221994726#0" type="hcmc_fleet" />
    <trip id="219" depart="436.00" from="1200728225#1" to="1200728225#4" type="hcmc_fleet" />
    <trip id="220" depart="438.00" from="1265822568#3" to="1200728225#2" type="hcmc_fleet" />
    <trip id="221" depart="440.00" from="1265822568#0" to="1267462159#2" type="hcmc_fleet" />
    <trip id="222" depart="442.00" from="1200728225#0" to="1267462159#3" type="hcmc_fleet" />
    <trip id="223" depart="444.00" from="1265822568#1" to="1200728225#2" type="hcmc_fleet" />
    <trip id="224" depart="446.00" from="1200728225#1" to="1221994726#2" type="hcmc_fleet" />
    <trip id="225" depart="448.00" from="1422795954" to="1267462159#2" type="hcmc_fleet" />
    <trip id="226" depart="450.00" from="1265822568#2" to="1221994726#1" type="hcmc_fleet" />
    <trip id="227" depart="452.00" from="1200728225#3" to="1267462159#1" type="hcmc_fleet" />
    <trip id="228" depart="454.00" from="1422795954" to="1200728225#2" type="hcmc_fleet" />
    <trip id="229" depart="456.00" from="1265822568#0" to="1200728225#4" type="hcmc_fleet" />
    <trip id="230" depart="458.00" from="1221994726#0" to="1267462159#3" type="hcmc_fleet" />
    <trip id="231" depart="460.00" from="1200728225#3" to="1200728225#3" type="hcmc_fleet" />
    <trip id="232" depart="462.00" from="1265822568#0" to="1267462159#3" type="hcmc_fleet" />
    <trip id="233" depart="464.00" from="1265822568#0" to="1200728225#4" type="hcmc_fleet" />
    <trip id="234" depart="466.00" from="1265822568#0" to="1221994726#2" type="hcmc_fleet" />
    <trip id="235" depart="468.00" from="1265822568#0" to="1200728225#2" type="hcmc_fleet" />
    <trip id="236" depart="470.00" from="1265822568#3" to="1163556238#1" type="hcmc_fleet" />
    <trip id="237" depart="472.00" from="1265822568#1" to="1267462159#1" type="hcmc_fleet" />
    <trip id="238" depart="474.00" from="1422795954" to="1221994726#1" type="hcmc_fleet" />
    <trip id="239" depart="476.00" from="-1163556238#1" to="1221994726#1" type="hcmc_fleet" />
    <trip id="240" depart="478.00" from="1265822568#0" to="1267462159#2" type="hcmc_fleet" />
    <trip id="241" depart="480.00" from="1265822568#2" to="1221994726#0" type="hcmc_fleet" />
    <trip id="242" depart="482.00" from="1265822568#1" to="1267462159#1" type="hcmc_fleet" />
    <trip id="243" depart="484.00" from="1267462159#1" to="1267462159#1" type="hcmc_fleet" />
    <trip id="244" depart="486.00" from="1265822568#2" to="1265822568#3" type="hcmc_fleet" />
    <trip id="245" depart="488.00" from="1267462159#2" to="1267462159#3" type="hcmc_fleet" />
    <trip id="246" depart="490.00" from="1265822568#3" to="1221994726#0" type="hcmc_fleet" />
    <trip id="247" depart="492.00" from="1265822568#2" to="1267462159#2" type="hcmc_fleet" />
    <trip id="248" depart="494.00" from="1200728225#3" to="1200728225#4" type="hcmc_fleet" />
    <trip id="249" depart="496.00" from="1200728225#1" to="1221994726#1" type="hcmc_fleet" />
    <trip id="250" depart="498.00" from="1265822568#0" to="1265822568#3" type="hcmc_fleet" />
    <trip id="251" depart="500.00" from="1200728225#2" to="1267462159#2" type="hcmc_fleet" />
    <trip id="252" depart="502.00" from="1200728225#1" to="1221994726#0" type="hcmc_fleet" />
    <trip id="253" depart="504.00" from="1200728225#2" to="1200728225#2" type="hcmc_fleet" />
    <trip id="254" depart="506.00" from="-1163556238#1" to="1267462159#1" type="hcmc_fleet" />
    <trip id="255" depart="508.00" from="1200728225#1" to="1221994726#0" type="hcmc_fleet" />
    <trip id="256" depart="510.00" from="1200728225#4" to="1221994726#2" type="hcmc_fleet" />
    <trip id="257" depart="512.00" from="1265822568#1" to="1221994726#0" type="hcmc_fleet" />
    <trip id="258" depart="514.00" from="1200728225#2" to="1267462159#1" type="hcmc_fleet" />
    <trip id="259" depart="516.00" from="1200728225#1" to="1200728225#4" type="hcmc_fleet" />
    <trip id="260" depart="518.00" from="1265822568#0" to="1221994726#2" type="hcmc_fleet" />
    <trip id="261" depart="520.00" from="1422795954" to="1200728225#3" type="hcmc_fleet" />
    <trip id="262" depart="522.00" from="1200728225#3" to="1221994726#2" type="hcmc_fleet" />
    <trip id="263" depart="524.00" from="1265822568#2" to="1265822568#3" type="hcmc_fleet" />
    <trip id="264" depart="526.00" from="1265822568#1" to="1200728225#4" type="hcmc_fleet" />
    <trip id="265" depart="528.00" from="1265822568#1" to="1265822568#1" type="hcmc_fleet" />
    <trip id="266" depart="530.00" from="1265822568#2" to="1265822568#2" type="hcmc_fleet" />
    <trip id="267" depart="532.00" from="1265822568#1" to="1267462159#1" type="hcmc_fleet" />
    <trip id="268" depart="534.00" from="1265822568#1" to="1267462159#2" type="hcmc_fleet" />
    <trip id="269" depart="536.00" from="1265822568#1" to="1200728225#3" type="hcmc_fleet" />
    <trip id="270" depart="538.00" from="1221994726#0" to="1221994726#2" type="hcmc_fleet" />
    <trip id="271" depart="540.00" from="1265822568#0" to="1267462159#3" type="hcmc_fleet" />
    <trip id="272" depart="542.00" from="1422795954" to="1200728225#1" type="hcmc_fleet" />
    <trip id="273" depart="544.00" from="1422795954" to="1267462159#1" type="hcmc_fleet" />
    <trip id="274" depart="546.00" from="1265822568#2" to="1267462159#3" type="hcmc_fleet" />
    <trip id="275" depart="548.00" from="1422795954" to="1267462159#1" type="hcmc_fleet" />
    <trip id="276" depart="550.00" from="-1163556238#1" to="1221994726#2" type="hcmc_fleet" />
    <trip id="277" depart="552.00" from="1265822568#2" to="1221994726#2" type="hcmc_fleet" />
    <trip id="278" depart="554.00" from="1267462159#1" to="1267462159#3" type="hcmc_fleet" />
    <trip id="279" depart="556.00" from="1200728225#0" to="1200728225#2" type="hcmc_fleet" />
    <trip id="280" depart="558.00" from="-1163556238#1" to="1267462159#2" type="hcmc_fleet" />
    <trip id="281" depart="560.00" from="1265822568#0" to="1267462159#2" type="hcmc_fleet" />
    <trip id="282" depart="562.00" from="1200728225#2" to="1163556238#1" type="hcmc_fleet" />
    <trip id="283" depart="564.00" from="1267462159#1" to="1267462159#2" type="hcmc_fleet" />
    <trip id="284" depart="566.00" from="1200728225#3" to="1221994726#0" type="hcmc_fleet" />
    <trip id="285" depart="568.00" from="1200728225#1" to="1267462159#3" type="hcmc_fleet" />
    <trip id="286" depart="570.00" from="1200728225#3" to="1221994726#1" type="hcmc_fleet" />
    <trip id="287" depart="572.00" from="1200728225#0" to="1267462159#2" type="hcmc_fleet" />
    <trip id="288" depart="574.00" from="1200728225#1" to="1221994726#0" type="hcmc_fleet" />
    <trip id="289" depart="576.00" from="1265822568#2" to="1265822568#3" type="hcmc_fleet" />
    <trip id="290" depart="578.00" from="1422795954" to="1221994726#0" type="hcmc_fleet" />
    <trip id="291" depart="580.00" from="1422795954" to="1163556238#1" type="hcmc_fleet" />
    <trip id="292" depart="582.00" from="1200728225#4" to="1221994726#0" type="hcmc_fleet" />
    <trip id="293" depart="584.00" from="1422795954" to="1267462159#1" type="hcmc_fleet" />
    <trip id="294" depart="586.00" from="1265822568#0" to="1267462159#3" type="hcmc_fleet" />
    <trip id="295" depart="588.00" from="1200728225#4" to="1200728225#4" type="hcmc_fleet" />
    <trip id="296" depart="590.00" from="1265822568#1" to="1265822568#1" type="hcmc_fleet" />
    <trip id="297" depart="592.00" from="1265822568#0" to="1163556238#1" type="hcmc_fleet" />
    <trip id="298" depart="594.00" from="1265822568#3" to="1200728225#2" type="hcmc_fleet" />
    <trip id="299" depart="596.00" from="1200728225#0" to="1221994726#2" type="hcmc_fleet" />
    <trip id="300" depart="598.00" from="1200728225#2" to="1200728225#2" type="hcmc_fleet" />
    <trip id="301" depart="600.00" from="1200728225#1" to="1267462159#2" type="hcmc_fleet" />
    <trip id="302" depart="602.00" from="-1163556238#1" to="1267462159#1" type="hcmc_fleet" />
    <trip id="303" depart="604.00" from="1265822568#1" to="1163556238#1" type="hcmc_fleet" />
    <trip id="304" depart="606.00" from="1200728225#2" to="1200728225#3" type="hcmc_fleet" />
    <trip id="305" depart="608.00" from="1200728225#1" to="1163556238#1" type="hcmc_fleet" />
    <trip id="306" depart="610.00" from="1265822568#3" to="1221994726#1" type="hcmc_fleet" />
    <trip id="307" depart="612.00" from="1265822568#3" to="1221994726#1" type="hcmc_fleet" />
    <trip id="308" depart="614.00" from="1265822568#3" to="1221994726#1" type="hcmc_fleet" />
    <trip id="309" depart="616.00" from="1200728225#0" to="1221994726#1" type="hcmc_fleet" />
    <trip id="310" depart="618.00" from="1422795954" to="1163556238#1" type="hcmc_fleet" />
    <trip id="311" depart="620.00" from="1265822568#3" to="1267462159#2" type="hcmc_fleet" />
    <trip id="312" depart="622.00" from="1422795954" to="1163556238#1" type="hcmc_fleet" />
    <trip id="313" depart="624.00" from="1265822568#2" to="1221994726#1" type="hcmc_fleet" />
    <trip id="314" depart="626.00" from="1265822568#1" to="1221994726#2" type="hcmc_fleet" />
    <trip id="315" depart="628.00" from="1200728225#3" to="1267462159#3" type="hcmc_fleet" />
    <trip id="316" depart="630.00" from="1265822568#2" to="1267462159#1" type="hcmc_fleet" />
    <trip id="317" depart="632.00" from="1265822568#1" to="1265822568#3" type="hcmc_fleet" />
    <trip id="318" depart="634.00" from="1265822568#2" to="1200728225#2" type="hcmc_fleet" />
    <trip id="319" depart="636.00" from="1200728225#4" to="1221994726#0" type="hcmc_fleet" />