<?xml version="1.0" encoding="UTF-8"?>

<!-- generated on 2025-11-04 20:07:06.146139 by randomTrips.py v1_24_0+0000-b72eb3fabc8
<configuration>
    <net-file value="D:\AfterGradEx\de_traffic_control\map.net.xml"/>
    <additional-files value="D:\AfterGradEx\de_traffic_control\hcmc_vtypes.xml"/>
    <output-trip-file value="D:\AfterGradEx\de_traffic_control\trips_rush_2.trips.xml"/>
    <trip-attributes value="type=&quot;hcmc_fleet&quot;"/>
    <begin value="3600.0"/>
    <end value="5400.0"/>
    <period value="1.4"/>
</configuration>
-->

<routes xmlns:xsi="http://www.w3.org/2001/XMLSchema-instance" xsi:noNamespaceSchemaLocation="http://sumo.dlr.de/xsd/routes_file.xsd">
    <trip id="0" depart="3600.00" from="1265822568#1" to="1163556238#1" type="hcmc_fleet"/>
    <trip id="1" depart="3601.40" from="1200728225#2" to="1221994726#1" type="hcmc_fleet"/>
    <trip id="2" depart="3602.80" from="1265822568#1" to="1221994726#2" type="hcmc_fleet"/>
    <trip id="3" depart="3604.20" from="1200728225#2" to="1221994726#2" type="hcmc_fleet"/>
    <trip id="4" depart="3605.60" from="1422795954" to="1200728225#4" type="hcmc_fleet"/>
    <trip id="5" depart="3607.00" from="1200728225#0" to="1200728225#0" type="hcmc_fleet"/>
    <trip id="6" depart="3608.40" from="1265822568#0" to="1267462159#3" type="hcmc_fleet"/>
    <trip id="7" depart="3609.80" from="1200728225#4" to="1221994726#2" type="hcmc_fleet"/>
    <trip id="8" depart="3611.20" from="1265822568#2" to="1163556238#1" type="hcmc_fleet"/>
    <trip id="9" depart="3612.60" from="1200728225#2" to="1200728225#3" type="hcmc_fleet"/>
    <trip id="10" depart="3614.00" from="1200728225#0" to="1200728225#2" type="hcmc_fleet"/>
    <trip id="11" depart="3615.40" from="1200728225#0" to="1200728225#3" type="hcmc_fleet"/>
    <trip id="12" depart="3616.80" from="1265822568#1" to="1200728225#4" type="hcmc_fleet"/>
    <trip id="13" depart="3618.20" from="1200728225#3" to="1267462159#3" type="hcmc_fleet"/>
    <trip id="14" depart="3619.60" from="1265822568#1" to="1265822568#1" type="hcmc_fleet"/>
    <trip id="15" depart="3621.00" from="1200728225#1" to="1200728225#4" type="hcmc_fleet"/>
    <trip id="16" depart="3622.40" from="1265822568#0" to="1265822568#2" type="hcmc_fleet"/>
    <trip id="17" depart="3623.80" from="1200728225#2" to="1163556238#1" type="hcmc_fleet"/>
    <trip id="18" depart="3625.20" from="1200728225#3" to="1200728225#3" type="hcmc_fleet"/>
    <trip id="19" depart="3626.60" from="1200728225#2" to="1267462159#3" type="hcmc_fleet"/>
    <trip id="20" depart="3628.00" from="1265822568#1" to="1200728225#4" type="hcmc_fleet"/>
    <trip id="21" depart="3629.40" from="1200728225#2" to="1200728225#2" type="hcmc_fleet"/>
    <trip id="22" depart="3630.80" from="1265822568#0" to="1200728225#2" type="hcmc_fleet"/>
    <trip id="23" depart="3632.20" from="1265822568#0" to="1267462159#2" type="hcmc_fleet"/>
    <trip id="24" depart="3633.60" from="1422795954" to="1221994726#1" type="hcmc_fleet"/>
    <trip id="25" depart="3635.00" from="1200728225#0" to="1163556238#1" type="hcmc_fleet"/>
    <trip id="26" depart="3636.40" from="1265822568#3" to="1221994726#0" type="hcmc_fleet"/>
    <trip id="27" depart="3637.80" from="1422795954" to="1221994726#1" type="hcmc_fleet"/>
    <trip id="28" depart="3639.20" from="1422795954" to="1267462159#1" type="hcmc_fleet"/>
    <trip id="29" depart="3640.60" from="1265822568#2" to="1221994726#2" type="hcmc_fleet"/>
    <trip id="30" depart="3642.00" from="1200728225#0" to="1221994726#0" type="hcmc_fleet"/>
    <trip id="31" depart="3643.40" from="1221994726#0" to="1267462159#3" type="hcmc_fleet"/>
    <trip id="32" depart="3644.80" from="1267462159#2" to="1267462159#2" type="hcmc_fleet"/>
    <trip id="33" depart="3646.20" from="1265822568#3" to="1221994726#2" type="hcmc_fleet"/>
    <trip id="34" depart="3647.60" from="1265822568#3" to="1221994726#1" type="hcmc_fleet"/>
    <trip id="35" depart="3649.00" from="-1163556238#1" to="1267462159#2" type="hcmc_fleet"/>
    <trip id="36" depart="3650.40" from="1200728225#3" to="1163556238#1" type="hcmc_fleet"/>
    <trip id="37" depart="3651.80" from="1267462159#2" to="1267462159#3" type="hcmc_fleet"/>
    <trip id="38" depart="3653.20" from="1200728225#0" to="1221994726#1" type="hcmc_fleet"/>
    <trip id="39" depart="3654.60" from="1221994726#1" to="1221994726#2" type="hcmc_fleet"/>
    <trip id="40" depart="3656.00" from="1200728225#2" to="1267462159#2" type="hcmc_fleet"/>
    <trip id="41" depart="3657.40" from="1265822568#0" to="1265822568#2" type="hcmc_fleet"/>
    <trip id="42" depart="3658.80" from="1200728225#2" to="1200728225#3" type="hcmc_fleet"/>
    <trip id="43" depart="3660.20" from="1221994726#0" to="1221994726#1" type="hcmc_fleet"/>
    <trip id="44" depart="3661.60" from="1200728225#0" to="1200728225#2" type="hcmc_fleet"/>
    <trip id="45" depart="3663.00" from="1200728225#4" to="1221994726#2" type="hcmc_fleet"/>
    <trip id="46" depart="3664.40" from="1200728225#2" to="1200728225#2" type="hcmc_fleet"/>
    <trip id="47" depart="3665.80" from="1200728225#2" to="1267462159#2" type="hcmc_fleet"/>
    <trip id="48" depart="3667.20" from="1422795954" to="1221994726#2" type="hcmc_fleet"/>
    <trip id="49" depart="3668.60" from="1200728225#0" to="1221994726#0" type="hcmc_fleet"/>
    <trip id="50" depart="3670.00" from="1221994726#0" to="1221994726#1" type="hcmc_fleet"/>
    <trip id="51" depart="3671.40" from="1265822568#2" to="1265822568#2" type="hcmc_fleet"/>
    <trip id="52" depart="3672.80" from="1422795954" to="1200728225#0" type="hcmc_fleet"/>
    <trip id="53" depart="3674.20" from="1200728225#1" to="1221994726#0" type="hcmc_fleet"/>
    <trip id="54" depart="3675.60" from="1200728225#2" to="1267462159#2" type="hcmc_fleet"/>
    <trip id="55" depart="3677.00" from="1221994726#0" to="1267462159#1" type="hcmc_fleet"/>
    <trip id="56" depart="3678.40" from="1265822568#0" to="1163556238#1" type="hcmc_fleet"/>
    <trip id="57" depart="3679.80" from="1422795954" to="1267462159#1" type="hcmc_fleet"/>
    <trip id="58" depart="3681.20" from="1422795954" to="1267462159#2" type="hcmc_fleet"/>
    <trip id="59" depart="3682.60" from="1200728225#4" to="1267462159#3" type="hcmc_fleet"/>
    <trip id="60" depart="3684.00" from="1221994726#0" to="1221994726#0" type="hcmc_fleet"/>
    <trip id="61" depart="3685.40" from="1422795954" to="1267462159#3" type="hcmc_fleet"/>
    <trip id="62" depart="3686.80" from="1265822568#0" to="1265822568#2" type="hcmc_fleet"/>
    <trip id="63" depart="3688.20" from="1200728225#1" to="1200728225#3" type="hcmc_fleet"/>
    <trip id="64" depart="3689.60" from="1422795954" to="1221994726#2" type="hcmc_fleet"/>
    <trip id="65" depart="3691.00" from="1265822568#0" to="1265822568#3" type="hcmc_fleet"/>
    <trip id="66" depart="3692.40" from="-1163556238#1" to="1221994726#2" type="hcmc_fleet"/>
    <trip id="67" depart="3693.80" from="1200728225#1" to="1267462159#3" type="hcmc_fleet"/>
    <trip id="68" depart="3695.20" from="1200728225#0" to="1200728225#1" type="hcmc_fleet"/>
    <trip id="69" depart="3696.60" from="1265822568#0" to="1265822568#2" type="hcmc_fleet"/>
    <trip id="70" depart="3698.00" from="1265822568#0" to="1265822568#1" type="hcmc_fleet"/>
    <trip id="71" depart="3699.40" from="1221994726#0" to="1221994726#2" type="hcmc_fleet"/>
    <trip id="72" depart="3700.80" from="1200728225#2" to="1200728225#4" type="hcmc_fleet"/>
    <trip id="73" depart="3702.20" from="1265822568#2" to="1200728225#3" type="hcmc_fleet"/>
    <trip id="74" depart="3703.60" from="1200728225#0" to="1221994726#0" type="hcmc_fleet"/>
    <trip id="75" depart="3705.00" from="1422795954" to="1267462159#3" type="hcmc_fleet"/>
    <trip id="76" depart="3706.40" from="1200728225#0" to="1200728225#2" type="hcmc_fleet"/>
    <trip id="77" depart="3707.80" from="1200728225#2" to="1267462159#2" type="hcmc_fleet"/>
    <trip id="78" depart="3709.20" from="1267462159#2" to="1267462159#2" type="hcmc_fleet"/>
    <trip id="79" depart="3710.60" from="1265822568#1" to="1267462159#3" type="hcmc_fleet"/>
    <trip id="80" depart="3712.00" from="1265822568#1" to="1163556238#1" type="hcmc_fleet"/>
    <trip id="81" depart="3713.40" from="1265822568#1" to="1267462159#3" type="hcmc_fleet"/>
    <trip id="82" depart="3714.80" from="1200728225#0" to="1221994726#2" type="hcmc_fleet"/>
    <trip id="83" depart="3716.20" from="1265822568#2" to="1200728225#2" type="hcmc_fleet"/>
    <trip id="84" depart="3717.60" from="1265822568#1" to="1200728225#2" type="hcmc_fleet"/>
    <trip id="85" depart="3719.00" from="1265822568#1" to="1200728225#2" type="hcmc_fleet"/>
    <trip id="86" depart="3720.40" from="1265822568#3" to="1221994726#2" type="hcmc_fleet"/>
    <trip id="87" depart="3721.80" from="1200728225#0" to="1267462159#2" type="hcmc_fleet"/>
    <trip id="88" depart="3723.20" from="1200728225#3" to="1267462159#2" type="hcmc_fleet"/>
    <trip id="89" depart="3724.60" from="1265822568#3" to="1267462159#1" type="hcmc_fleet"/>
    <trip id="90" depart="3726.00" from="1265822568#3" to="1267462159#2" type="hcmc_fleet"/>
    <trip id="91" depart="3727.40" from="1200728225#1" to="1267462159#2" type="hcmc_fleet"/>
    <trip id="92" depart="3728.80" from="1267462159#1" to="1267462159#3" type="hcmc_fleet"/>
    <trip id="93" depart="3730.20" from="1267462159#1" to="1267462159#2" type="hcmc_fleet"/>
    <trip id="94" depart="3731.60" from="1200728225#3" to="1267462159#2" type="hcmc_fleet"/>
    <trip id="95" depart="3733.00" from="1267462159#1" to="1267462159#1" type="hcmc_fleet"/>
    <trip id="96" depart="3734.40" from="1200728225#2" to="1267462159#1" type="hcmc_fleet"/>
    <trip id="97" depart="3735.80" from="1265822568#3" to="1200728225#2" type="hcmc_fleet"/>
    <trip id="98" depart="3737.20" from="1200728225#3" to="1267462159#1" type="hcmc_fleet"/>
    <trip id="99" depart="3738.60" from="1422795954" to="1200728225#3" type="hcmc_fleet"/>
    <trip id="100" depart="3740.00" from="1265822568#1" to="1200728225#4" type="hcmc_fleet"/>
    <trip id="101" depart="3741.40" from="1422795954" to="1221994726#2" type="hcmc_fleet"/>
    <trip id="102" depart="3742.80" from="1422795954" to="1200728225#0" type="hcmc_fleet"/>
    <trip id="103" depart="3744.20" from="1422795954" to="1200728225#1" type="hcmc_fleet"/>
    <trip id="104" depart="3745.60" from="1422795954" to="1200728225#2" type="hcmc_fleet"/>
    <trip id="105" depart="3747.00" from="1200728225#0" to="1221994726#0" type="hcmc_fleet"/>
    <trip id="106" depart="3748.40" from="1265822568#2" to="1200728225#3" type="hcmc_fleet"/>
    <trip id="107" depart="3749.80" from="1265822568#1" to="1221994726#1" type="hcmc_fleet"/>
    <trip id="108" depart="3751.20" from="1200728225#4" to="1221994726#2" type="hcmc_fleet"/>
    <trip id="109" depart="3752.60" from="-1163556238#1" to="1267462159#2" type="hcmc_fleet"/>
    <trip id="110" depart="3754.00" from="1265822568#0" to="1265822568#2" type="hcmc_fleet"/>
    <trip id="111" depart="3755.40" from="1265822568#1" to="1200728225#3" type="hcmc_fleet"/>
    <trip id="112" depart="3756.80" from="1200728225#3" to="1267462159#1" type="hcmc_fleet"/>
    <trip id="113" depart="3758.20" from="1265822568#2" to="1200728225#3" type="hcmc_fleet"/>
    <trip id="114" depart="3759.60" from="1200728225#3" to="1221994726#0" type="hcmc_fleet"/>
    <trip id="115" depart="3761.00" from="1200728225#0" to="1221994726#0" type="hcmc_fleet"/>
    <trip id="116" depart="3762.40" from="1200728225#3" to="1221994726#2" type="hcmc_fleet"/>
    <trip id="117" depart="3763.80" from="1221994726#0" to="1221994726#2" type="hcmc_fleet"/>
    <trip id="118" depart="3765.20" from="1265822568#1" to="1221994726#0" type="hcmc_fleet"/>
    <trip id="119" depart="3766.60" from="1200728225#0" to="1221994726#1" type="hcmc_fleet"/>
    <trip id="120" depart="3768.00" from="1265822568#1" to="1200728225#4" type="hcmc_fleet"/>
    <trip id="121" depart="3769.40" from="1265822568#2" to="1200728225#2" type="hcmc_fleet"/>
    <trip id="122" depart="3770.80" from="1200728225#1" to="1163556238#1" type="hcmc_fleet"/>
    <trip id="123" depart="3772.20" from="1200728225#2" to="1221994726#1" type="hcmc_fleet"/>
    <trip id="124" depart="3773.60" from="1265822568#1" to="1163556238#1" type="hcmc_fleet"/>
    <trip id="125" depart="3775.00" from="1265822568#3" to="1265822568#3" type="hcmc_fleet"/>
    <trip id="126" depart="3776.40" from="1200728225#0" to="1221994726#0" type="hcmc_fleet"/>
    <trip id="127" depart="3777.80" from="1200728225#1" to="1267462159#3" type="hcmc_fleet"/>
    <trip id="128" depart="3779.20" from="1200728225#2" to="1267462159#1" type="hcmc_fleet"/>
    <trip id="129" depart="3780.60" from="1221994726#0" to="1267462159#1" type="hcmc_fleet"/>
    <trip id="130" depart="3782.00" from="1265822568#2" to="1267462159#3" type="hcmc_fleet"/>
    <trip id="131" depart="3783.40" from="1265822568#0" to="1267462159#3" type="hcmc_fleet"/>
    <trip id="132" depart="3784.80" from="1265822568#2" to="1221994726#1" type="hcmc_fleet"/>
    <trip id="133" depart="3786.20" from="1265822568#3" to="1221994726#1" type="hcmc_fleet"/>
    <trip id="134" depart="3787.60" from="1265822568#1" to="1200728225#3" type="hcmc_fleet"/>
    <trip id="135" depart="3789.00" from="1200728225#0" to="1200728225#3" type="hcmc_fleet"/>
    <trip id="136" depart="3790.40" from="1200728225#3" to="1200728225#3" type="hcmc_fleet"/>
    <trip id="137" depart="3791.80" from="1265822568#2" to="1163556238#1" type="hcmc_fleet"/>
    <trip id="138" depart="3793.20" from="1221994726#0" to="1221994726#2" type="hcmc_fleet"/>
    <trip id="139" depart="3794.60" from="1221994726#0" to="1267462159#2" type="hcmc_fleet"/>
    <trip id="140" depart="3796.00" from="1265822568#0" to="1265822568#2" type="hcmc_fleet"/>
    <trip id="141" depart="3797.40" from="1200728225#4" to="1163556238#1" type="hcmc_fleet"/>
    <trip id="142" depart="3798.80" from="1267462159#1" to="1267462159#3" type="hcmc_fleet"/>
    <trip id="143" depart="3800.20" from="1265822568#0" to="1265822568#1" type="hcmc_fleet"/>
    <trip id="144" depart="3801.60" from="1200728225#2" to="1200728225#2" type="hcmc_fleet"/>
    <trip id="145" depart="3803.00" from="1265822568#1" to="1163556238#1" type="hcmc_fleet"/>
    <trip id="146" depart="3804.40" from="1200728225#4" to="1221994726#2" type="hcmc_fleet"/>
    <trip id="147" depart="3805.80" from="1200728225#1" to="1221994726#0" type="hcmc_fleet"/>
    <trip id="148" depart="3807.20" from="1200728225#2" to="1200728225#3" type="hcmc_fleet"/>
    <trip id="149" depart="3808.60" from="1265822568#3" to="1200728225#4" type="hcmc_fleet"/>
    <trip id="150" depart="3810.00" from="1265822568#3" to="1267462159#1" type="hcmc_fleet"/>
    <trip id="151" depart="3811.40" from="-1163556238#1" to="1221994726#2" type="hcmc_fleet"/>
    <trip id="152" depart="3812.80" from="1422795954" to="1200728225#4" type="hcmc_fleet"/>
    <trip id="153" depart="3814.20" from="1265822568#1" to="1265822568#3" type="hcmc_fleet"/>
    <trip id="154" depart="3815.60" from="1265822568#1" to="1265822568#3" type="hcmc_fleet"/>
    <trip id="155" depart="3817.00" from="1422795954" to="1200728225#1" type="hcmc_fleet"/>
    <trip id="156" depart="3818.40" from="1265822568#0" to="1200728225#2" type="hcmc_fleet"/>
    <trip id="157" depart="3819.80" from="1265822568#2" to="1265822568#3" type="hcmc_fleet"/>
    <trip id="158" depart="3821.20" from="1267462159#1" to="1267462159#3" type="hcmc_fleet"/>
    <trip id="159" depart="3822.60" from="1200728225#0" to="1163556238#1" type="hcmc_fleet"/>
    <trip id="160" depart="3824.00" from="1422795954" to="1200728225#4" type="hcmc_fleet"/>
    <trip id="161" depart="3825.40" from="1200728225#0" to="1267462159#3" type="hcmc_fleet"/>
    <trip id="162" depart="3826.80" from="1265822568#3" to="1200728225#4" type="hcmc_fleet"/>
    <trip id="163" depart="3828.20" from="1267462159#1" to="1267462159#1" type="hcmc_fleet"/>
    <trip id="164" depart="3829.60" from="1200728225#0" to="1267462159#3" type="hcmc_fleet"/>
    <trip id="165" depart="3831.00" from="1265822568#1" to="1267462159#1" type="hcmc_fleet"/>
    <trip id="166" depart="3832.40" from="1265822568#2" to="1221994726#0" type="hcmc_fleet"/>
    <trip id="167" depart="3833.80" from="1265822568#3" to="1267462159#3" type="hcmc_fleet"/>
    <trip id="168" depart="3835.20" from="1200728225#3" to="1267462159#1" type="hcmc_fleet"/>
    <trip id="169" depart="3836.60" from="1265822568#0" to="1221994726#1" type="hcmc_fleet"/>
    <trip id="170" depart="3838.00" from="1200728225#3" to="1267462159#1" type="hcmc_fleet"/>
    <trip id="171" depart="3839.40" from="1200728225#4" to="1163556238#1" type="hcmc_fleet"/>
    <trip id="172" depart="3840.80" from="1200728225#4" to="1267462159#2" type="hcmc_fleet"/>
    <trip id="173" depart="3842.20" from="1265822568#2" to="1200728225#3" type="hcmc_fleet"/>
    <trip id="174" depart="3843.60" from="-1163556238#1" to="1267462159#3" type="hcmc_fleet"/>
    <trip id="175" depart="3845.00" from="1200728225#0" to="1200728225#2" type="hcmc_fleet"/>
    <trip id="176" depart="3846.40" from="1265822568#2" to="1200728225#3" type="hcmc_fleet"/>
    <trip id="177" depart="3847.80" from="1265822568#0" to="1221994726#1" type="hcmc_fleet"/>
    <trip id="178" depart="3849.20" from="1265822568#3" to="1200728225#3" type="hcmc_fleet"/>
    <trip id="179" depart="3850.60" from="1265822568#2" to="1200728225#3" type="hcmc_fleet"/>
    <trip id="180" depart="3852.00" from="1265822568#0" to="1265822568#3" type="hcmc_fleet"/>
    <trip id="181" depart="3853.40" from="1200728225#1" to="1200728225#2" type="hcmc_fleet"/>
    <trip id="182" depart="3854.80" from="1422795954" to="1221994726#1" type="hcmc_fleet"/>
    <trip id="183" depart="3856.20" from="1200728225#1" to="1200728225#2" type="hcmc_fleet"/>
    <trip id="184" depart="3857.60" from="1200728225#1" to="1163556238#1" type="hcmc_fleet"/>
    <trip id="185" depart="3859.00" from="1265822568#0" to="1200728225#3" type="hcmc_fleet"/>
    <trip id="186" depart="3860.40" from="1422795954" to="1221994726#2" type="hcmc_fleet"/>
    <trip id="187" depart="3861.80" from="1200728225#1" to="1163556238#1" type="hcmc_fleet"/>
    <trip id="188" depart="3863.20" from="1422795954" to="1221994726#1" type="hcmc_fleet"/>
    <trip id="189" depart="3864.60" from="1265822568#0" to="1200728225#3" type="hcmc_fleet"/>
    <trip id="190" depart="3866.00" from="1422795954" to="1200728225#0" type="hcmc_fleet"/>
    <trip id="191" depart="3867.40" from="1265822568#3" to="1200728225#2" type="hcmc_fleet"/>
    <trip id="192" depart="3868.80" from="1221994726#0" to="1267462159#1" type="hcmc_fleet"/>
    <trip id="193" depart="3870.20" from="1422795954" to="1200728225#3" type="hcmc_fleet"/>
    <trip id="194" depart="3871.60" from="1265822568#1" to="1265822568#1" type="hcmc_fleet"/>
    <trip id="195" depart="3873.00" from="1265822568#3" to="1267462159#3" type="hcmc_fleet"/>
    <trip id="196" depart="3874.40" from="1200728225#2" to="1200728225#2" type="hcmc_fleet"/>
    <trip id="197" depart="3875.80" from="-1163556238#1" to="1221994726#0" type="hcmc_fleet"/>
    <trip id="198" depart="3877.20" from="1265822568#0" to="1200728225#3" type="hcmc_fleet"/>
    <trip id="199" depart="3878.60" from="1265822568#2" to="1221994726#0" type="hcmc_fleet"/>
    <trip id="200" depart="3880.00" from="1265822568#2" to="1267462159#2" type="hcmc_fleet"/>
    <trip id="201" depart="3881.40" from="1265822568#1" to="1267462159#3" type="hcmc_fleet"/>
    <trip id="202" depart="3882.80" from="1221994726#0" to="1221994726#2" type="hcmc_fleet"/>
    <trip id="203" depart="3884.20" from="1265822568#1" to="1267462159#2" type="hcmc_fleet"/>
    <trip id="204" depart="3885.60" from="1200728225#1" to="1200728225#3" type="hcmc_fleet"/>
    <trip id="205" depart="3887.00" from="1265822568#3" to="1221994726#2" type="hcmc_fleet"/>
    <trip id="206" depart="3888.40" from="1265822568#2" to="1265822568#2" type="hcmc_fleet"/>
    <trip id="207" depart="3889.80" from="1422795954" to="1221994726#1" type="hcmc_fleet"/>
    <trip id="208" depart="3891.20" from="-1163556238#1" to="1221994726#0" type="hcmc_fleet"/>
    <trip id="209" depart="3892.60" from="1200728225#0" to="1267462159#3" type="hcmc_fleet"/>
    <trip id="210" depart="3894.00" from="1422795954" to="1267462159#3" type="hcmc_fleet"/>
    <trip id="211" depart="3895.40" from="1265822568#2" to="1200728225#3" type="hcmc_fleet"/>
    <trip id="212" depart="3896.80" from="1265822568#0" to="1265822568#1" type="hcmc_fleet"/>
    <trip id="213" depart="3898.20" from="1265822568#2" to="1267462159#1" type="hcmc_fleet"/>
    <trip id="214" depart="3899.60" from="1200728225#3" to="1267462159#3" type="hcmc_fleet"/>
    <trip id="215" depart="3901.00" from="1200728225#3" to="1267462159#3" type="hcmc_fleet"/>
    <trip id="216" depart="3902.40" from="1221994726#0" to="1221994726#1" type="hcmc_fleet"/>
    <trip id="217" depart="3903.80" from="1265822568#0" to="1221994726#0" type="hcmc_fleet"/>
    <trip id="218" depart="3905.20" from="1200728225#1" to="1200728225#4" type="hcmc_fleet"/>
    <trip id="219" depart="3906.60" from="1265822568#3" to="1200728225#2" type="hcmc_fleet"/>
    <trip id="220" depart="3908.00" from="1265822568#0" to="1267462159#2" type="hcmc_fleet"/>
    <trip id="221" depart="3909.40" from="1200728225#0" to="1267462159#3" type="hcmc_fleet"/>
    <trip id="222" depart="3910.80" from="1265822568#1" to="1200728225#2" type="hcmc_fleet"/>
    <trip id="223" depart="3912.20" from="1200728225#1" to="1221994726#2" type="hcmc_fleet"/>
    <trip id="224" depart="3913.60" from="1422795954" to="1267462159#2" type="hcmc_fleet"/>
    <trip id="225" depart="3915.00" from="1265822568#2" to="1221994726#1" type="hcmc_fleet"/>
    <trip id="226" depart="3916.40" from="1200728225#3" to="1267462159#1" type="hcmc_fleet"/>
    <trip id="227" depart="3917.80" from="1422795954" to="1200728225#2" type="hcmc_fleet"/>
    <trip id="228" depart="3919.20" from="1265822568#0" to="1200728225#4" type="hcmc_fleet"/>
    <trip id="229" depart="3920.60" from="1221994726#0" to="1267462159#3" type="hcmc_fleet"/>
    <trip id="230" depart="3922.00" from="1200728225#3" to="1200728225#3" type="hcmc_fleet"/>
    <trip id="231" depart="3923.40" from="1265822568#0" to="1267462159#3" type="hcmc_fleet"/>
    <trip id="232" depart="3924.80" from="1265822568#0" to="1200728225#4" type="hcmc_fleet"/>
    <trip id="233" depart="3926.20" from="1265822568#0" to="1221994726#2" type="hcmc_fleet"/>
    <trip id="234" depart="3927.60" from="1265822568#0" to="1200728225#2" type="hcmc_fleet"/>
    <trip id="235" depart="3929.00" from="1265822568#3" to="1163556238#1" type="hcmc_fleet"/>
    <trip id="236" depart="3930.40" from="1265822568#1" to="1267462159#1" type="hcmc_fleet"/>
    <trip id="237" depart="3931.80" from="1422795954" to="1221994726#1" type="hcmc_fleet"/>
    <trip id="238" depart="3933.20" from="-1163556238#1" to="1221994726#1" type="hcmc_fleet"/>
    <trip id="239" depart="3934.60" from="1265822568#0" to="1267462159#2" type="hcmc_fleet"/>
    <trip id="240" depart="3936.00" from="1265822568#2" to="1221994726#0" type="hcmc_fleet"/>
    <trip id="241" depart="3937.40" from="1265822568#1" to="1267462159#1" type="hcmc_fleet"/>
    <trip id="242" depart="3938.80" from="1267462159#1" to="1267462159#1" type="hcmc_fleet"/>
    <trip id="243" depart="3940.20" from="1265822568#2" to="1265822568#3" type="hcmc_fleet"/>
    <trip id="244" depart="3941.60" from="1267462159#2" to="1267462159#3" type="hcmc_fleet"/>
    <trip id="245" depart="3943.00" from="1265822568#3" to="1221994726#0" type="hcmc_fleet"/>
    <trip id="246" depart="3944.40" from="1265822568#2" to="1267462159#2" type="hcmc_fleet"/>
    <trip id="247" depart="3945.80" from="1200728225#3" to="1200728225#4" type="hcmc_fleet"/>
    <trip id="248" depart="3947.20" from="1200728225#1" to="1221994726#1" type="hcmc_fleet"/>
    <trip id="249" depart="3948.60" from="1265822568#0" to="1265822568#3" type="hcmc_fleet"/>
    <trip id="250" depart="3950.00" from="1200728225#2" to="1267462159#2" type="hcmc_fleet"/>
    <trip id="251" depart="3951.40" from="1200728225#1" to="1221994726#0" type="hcmc_fleet"/>
    <trip id="252" depart="3952.80" from="1200728225#2" to="1200728225#2" type="hcmc_fleet"/>
    <trip id="253" depart="3954.20" from="-1163556238#1" to="1267462159#1" type="hcmc_fleet"/>
    <trip id="254" depart="3955.60" from="1200728225#1" to="1221994726#0" type="hcmc_fleet"/>
    <trip id="255" depart="3957.00" from="1200728225#4" to="1221994726#2" type="hcmc_fleet"/>
    <trip id="256" depart="3958.40" from="1265822568#1" to="1221994726#0" type="hcmc_fleet"/>
    <trip id="257" depart="3959.80" from="1200728225#2" to="1267462159#1" type="hcmc_fleet"/>
    <trip id="258" depart="3961.20" from="1200728225#1" to="1200728225#4" type="hcmc_fleet"/>
    <trip id="259" depart="3962.60" from="1265822568#0" to="1221994726#2" type="hcmc_fleet"/>
    <trip id="260" depart="3964.00" from="1422795954" to="1200728225#3" type="hcmc_fleet"/>
    <trip id="261" depart="3965.40" from="1200728225#3" to="1221994726#2" type="hcmc_fleet"/>
    <trip id="262" depart="3966.80" from="1265822568#2" to="1265822568#3" type="hcmc_fleet"/>
    <trip id="263" depart="3968.20" from="1265822568#1" to="1200728225#4" type="hcmc_fleet"/>
    <trip id="264" depart="3969.60" from="1265822568#1" to="1265822568#1" type="hcmc_fleet"/>
    <trip id="265" depart="3971.00" from="1265822568#2" to="1265822568#2" type="hcmc_fleet"/>
    <trip id="266" depart="3972.40" from="1265822568#1" to="1267462159#1" type="hcmc_fleet"/>
    <trip id="267" depart="3973.80" from="1265822568#1" to="1267462159#2" type="hcmc_fleet"/>
    <trip id="268" depart="3975.20" from="1265822568#1" to="1200728225#3" type="hcmc_fleet"/>
    <trip id="269" depart="3976.60" from="1221994726#0" to="1221994726#2" type="hcmc_fleet"/>
    <trip id="270" depart="3978.00" from="1265822568#0" to="1267462159#3" type="hcmc_fleet"/>
    <trip id="271" depart="3979.40" from="1422795954" to="1200728225#1" type="hcmc_fleet"/>
    <trip id="272" depart="3980.80" from="1422795954" to="1267462159#1" type="hcmc_fleet"/>
    <trip id="273" depart="3982.20" from="1265822568#2" to="1267462159#3" type="hcmc_fleet"/>
    <trip id="274" depart="3983.60" from="1422795954" to="1267462159#1" type="hcmc_fleet"/>
    <trip id="275" depart="3985.00" from="-1163556238#1" to="1221994726#2" type="hcmc_fleet"/>
    <trip id="276" depart="3986.40" from="1265822568#2" to="1221994726#2" type="hcmc_fleet"/>
    <trip id="277" depart="3987.80" from="1267462159#1" to="1267462159#3" type="hcmc_fleet"/>
    <trip id="278" depart="3989.20" from="1200728225#0" to="1200728225#2" type="hcmc_fleet"/>
    <trip id="279" depart="3990.60" from="-1163556238#1" to="1267462159#2" type="hcmc_fleet"/>
    <trip id="280" depart="3992.00" from="1265822568#0" to="1267462159#2" type="hcmc_fleet"/>
    <trip id="281" depart="3993.40" from="1200728225#2" to="1163556238#1" type="hcmc_fleet"/>
    <trip id="282" depart="3994.80" from="1267462159#1" to="1267462159#2" type="hcmc_fleet"/>
    <trip id="283" depart="3996.20" from="1200728225#3" to="1221994726#0" type="hcmc_fleet"/>
    <trip id="284" depart="3997.60" from="1200728225#1" to="1267462159#3" type="hcmc_fleet"/>
    <trip id="285" depart="3999.00" from="1200728225#3" to="1221994726#1" type="hcmc_fleet"/>
    <trip id="286" depart="4000.40" from="1200728225#0" to="1267462159#2" type="hcmc_fleet"/>
    <trip id="287" depart="4001.80" from="1200728225#1" to="1221994726#0" type="hcmc_fleet"/>
    <trip id="288" depart="4003.20" from="1265822568#2" to="1265822568#3" type="hcmc_fleet"/>
    <trip id="289" depart="4004.60" from="1422795954" to="1221994726#0" type="hcmc_fleet"/>
    <trip id="290" depart="4006.00" from="1422795954" to="1163556238#1" type="hcmc_fleet"/>
    <trip id="291" depart="4007.40" from="1200728225#4" to="1221994726#0" type="hcmc_fleet"/>
    <trip id="292" depart="4008.80" from="1422795954" to="1267462159#1" type="hcmc_fleet"/>
    <trip id="293" depart="4010.20" from="1265822568#0" to="1267462159#3" type="hcmc_fleet"/>
    <trip id="294" depart="4011.60" from="1200728225#4" to="1200728225#4" type="hcmc_fleet"/>
    <trip id="295" depart="4013.00" from="1265822568#1" to="1265822568#1" type="hcmc_fleet"/>
    <trip id="296" depart="4014.40" from="1265822568#0" to="1163556238#1" type="hcmc_fleet"/>
    <trip id="297" depart="4015.80" from="1265822568#3" to="1200728225#2" type="hcmc_fleet"/>
    <trip id="298" depart="4017.20" from="1200728225#0" to="1221994726#2" type="hcmc_fleet"/>
    <trip id="299" depart="4018.60" from="1200728225#2" to="1200728225#2" type="hcmc_fleet"/>
    <trip id="300" depart="4020.00" from="1200728225#1" to="1267462159#2" type="hcmc_fleet"/>
    <trip id="301" depart="4021.40" from="-1163556238#1" to="1267462159#1" type="hcmc_fleet"/>
    <trip id="302" depart="4022.80" from="1265822568#1" to="1163556238#1" type="hcmc_fleet"/>
    <trip id="303" depart="4024.20" from="1200728225#2" to="1200728225#3" type="hcmc_fleet"/>
    <trip id="304" depart="4025.60" from="1200728225#1" to="1163556238#1" type="hcmc_fleet"/>
    <trip id="305" depart="4027.00" from="1265822568#3" to="1221994726#1" type="hcmc_fleet"/>
    <trip id="306" depart="4028.40" from="1265822568#3" to="1221994726#1" type="hcmc_fleet"/>
    <trip id="307" depart="4029.80" from="1265822568#3" to="1221994726#1" type="hcmc_fleet"/>
    <trip id="308" depart="4031.20" from="1200728225#0" to="1221994726#1" type="hcmc_fleet"/>
    <trip id="309" depart="4032.60" from="1422795954" to="1163556238#1" type="hcmc_fleet"/>
    <trip id="310" depart="4034.00" from="1265822568#3" to="1267462159#2" type="hcmc_fleet"/>
    <trip id="311" depart="4035.40" from="1422795954" to="1163556238#1" type="hcmc_fleet"/>
    <trip id="312" depart="4036.80" from="1265822568#2" to="1221994726#1" type="hcmc_fleet"/>