<?xml version="1.0" encoding="UTF-8"?>

<!-- generated on 2025-11-04 20:07:21.156245 by randomTrips.py v1_24_0+0000-b72eb3fabc8
<configuration>
    <net-file value="D:\AfterGradEx\de_traffic_control\map.net.xml"/>
    <additional-files value="D:\AfterGradEx\de_traffic_control\hcmc_vtypes.xml"/>
    <output-trip-file value="D:\AfterGradEx\de_traffic_control\trips_rush_5.trips.xml"/>
    <trip-attributes value="type=&quot;hcmc_fleet&quot;"/>
    <begin value="9000.0"/>
    <end value="10800.0"/>
    <period value="1.0"/>
</configuration>
-->

<routes xmlns:xsi="http://www.w3.org/2001/XMLSchema-instance" xsi:noNamespaceSchemaLocation="http://sumo.dlr.de/xsd/routes_file.xsd">
    <trip id="0" depart="9000.00" from="1265822568#1" to="1163556238#1" type="hcmc_fleet"/>
    <trip id="1" depart="9001.00" from="1200728225#2" to="1221994726#1" type="hcmc_fleet"/>
    <trip id="2" depart="9002.00" from="1265822568#1" to="1221994726#2" type="hcmc_fleet"/>
    <trip id="3" depart="9003.00" from="1200728225#2" to="1221994726#2" type="hcmc_fleet"/>
    <trip id="4" depart="9004.00" from="1422795954" to="1200728225#4" type="hcmc_fleet"/>
    <trip id="5" depart="9005.00" from="1200728225#0" to="1200728225#0" type="hcmc_fleet"/>
    <trip id="6" depart="9006.00" from="1265822568#0" to="1267462159#3" type="hcmc_fleet"/>
    <trip id="7" depart="9007.00" from="1200728225#4" to="1221994726#2" type="hcmc_fleet"/>
    <trip id="8" depart="9008.00" from="1265822568#2" to="1163556238#1" type="hcmc_fleet"/>
    <trip id="9" depart="9009.00" from="1200728225#2" to="1200728225#3" type="hcmc_fleet"/>
    <trip id="10" depart="9010.00" from="1200728225#0" to="1200728225#2" type="hcmc_fleet"/>
    <trip id="11" depart="9011.00" from="1200728225#0" to="1200728225#3" type="hcmc_fleet"/>
    <trip id="12" depart="9012.00" from="1265822568#1" to="1200728225#4" type="hcmc_fleet"/>
    <trip id="13" depart="9013.00" from="1200728225#3" to="1267462159#3" type="hcmc_fleet"/>
    <trip id="14" depart="9014.00" from="1265822568#1" to="1265822568#1" type="hcmc_fleet"/>
    <trip id="15" depart="9015.00" from="1200728225#1" to="1200728225#4" type="hcmc_fleet"/>
    <trip id="16" depart="9016.00" from="1265822568#0" to="1265822568#2" type="hcmc_fleet"/>
    <trip id="17" depart="9017.00" from="1200728225#2" to="1163556238#1" type="hcmc_fleet"/>
    <trip id="18" depart="9018.00" from="1200728225#3" to="1200728225#3" type="hcmc_fleet"/>
    <trip id="19" depart="9019.00" from="1200728225#2" to="1267462159#3" type="hcmc_fleet"/>
    <trip id="20" depart="9020.00" from="1265822568#1" to="1200728225#4" type="hcmc_fleet"/>
    <trip id="21" depart="9021.00" from="1200728225#2" to="1200728225#2" type="hcmc_fleet"/>
    <trip id="22" depart="9022.00" from="1265822568#0" to="1200728225#2" type="hcmc_fleet"/>
    <trip id="23" depart="9023.00" from="1265822568#0" to="1267462159#2" type="hcmc_fleet"/>
    <trip id="24" depart="9024.00" from="1422795954" to="1221994726#1" type="hcmc_fleet"/>
    <trip id="25" depart="9025.00" from="1200728225#0" to="1163556238#1" type="hcmc_fleet"/>
    <trip id="26" depart="9026.00" from="1265822568#3" to="1221994726#0" type="hcmc_fleet"/>
    <trip id="27" depart="9027.00" from="1422795954" to="1221994726#1" type="hcmc_fleet"/>
    <trip id="28" depart="9028.00" from="1422795954" to="1267462159#1" type="hcmc_fleet"/>
    <trip id="29" depart="9029.00" from="1265822568#2" to="1221994726#2" type="hcmc_fleet"/>
    <trip id="30" depart="9030.00" from="1200728225#0" to="1221994726#0" type="hcmc_fleet"/>
    <trip id="31" depart="9031.00" from="1221994726#0" to="1267462159#3" type="hcmc_fleet"/>
    <trip id="32" depart="9032.00" from="1267462159#2" to="1267462159#2" type="hcmc_fleet"/>
    <trip id="33" depart="9033.00" from="1265822568#3" to="1221994726#2" type="hcmc_fleet"/>
    <trip id="34" depart="9034.00" from="1265822568#3" to="1221994726#1" type="hcmc_fleet"/>
    <trip id="35" depart="9035.00" from="-1163556238#1" to="1267462159#2" type="hcmc_fleet"/>
    <trip id="36" depart="9036.00" from="1200728225#3" to="1163556238#1" type="hcmc_fleet"/>
    <trip id="37" depart="9037.00" from="1267462159#2" to="1267462159#3" type="hcmc_fleet"/>
    <trip id="38" depart="9038.00" from="1200728225#0" to="1221994726#1" type="hcmc_fleet"/>
    <trip id="39" depart="9039.00" from="1221994726#1" to="1221994726#2" type="hcmc_fleet"/>
    <trip id="40" depart="9040.00" from="1200728225#2" to="1267462159#2" type="hcmc_fleet"/>
    <trip id="41" depart="9041.00" from="1265822568#0" to="1265822568#2" type="hcmc_fleet"/>
    <trip id="42" depart="9042.00" from="1200728225#2" to="1200728225#3" type="hcmc_fleet"/>
    <trip id="43" depart="9043.00" from="1221994726#0" to="1221994726#1" type="hcmc_fleet"/>
    <trip id="44" depart="9044.00" from="1200728225#0" to="1200728225#2" type="hcmc_fleet"/>
    <trip id="45" depart="9045.00" from="1200728225#4" to="1221994726#2" type="hcmc_fleet"/>
    <trip id="46" depart="9046.00" from="1200728225#2" to="1200728225#2" type="hcmc_fleet"/>
    <trip id="47" depart="9047.00" from="1200728225#2" to="1267462159#2" type="hcmc_fleet"/>
    <trip id="48" depart="9048.00" from="1422795954" to="1221994726#2" type="hcmc_fleet"/>
    <trip id="49" depart="9049.00" from="1200728225#0" to="1221994726#0" type="hcmc_fleet"/>
    <trip id="50" depart="9050.00" from="1221994726#0" to="1221994726#1" type="hcmc_fleet"/>
    <trip id="51" depart="9051.00" from="1265822568#2" to="1265822568#2" type="hcmc_fleet"/>
    <trip id="52" depart="9052.00" from="1422795954" to="1200728225#0" type="hcmc_fleet"/>
    <trip id="53" depart="9053.00" from="1200728225#1" to="1221994726#0" type="hcmc_fleet"/>
    <trip id="54" depart="9054.00" from="1200728225#2" to="1267462159#2" type="hcmc_fleet"/>
    <trip id="55" depart="9055.00" from="1221994726#0" to="1267462159#1" type="hcmc_fleet"/>
    <trip id="56" depart="9056.00" from="1265822568#0" to="1163556238#1" type="hcmc_fleet"/>
    <trip id="57" depart="9057.00" from="1422795954" to="1267462159#1" type="hcmc_fleet"/>
    <trip id="58" depart="9058.00" from="1422795954" to="1267462159#2" type="hcmc_fleet"/>
    <trip id="59" depart="9059.00" from="1200728225#4" to="1267462159#3" type="hcmc_fleet"/>
    <trip id="60" depart="9060.00" from="1221994726#0" to="1221994726#0" type="hcmc_fleet"/>
    <trip id="61" depart="9061.00" from="1422795954" to="1267462159#3" type="hcmc_fleet"/>
    <trip id="62" depart="9062.00" from="1265822568#0" to="1265822568#2" type="hcmc_fleet"/>
    <trip id="63" depart="9063.00" from="1200728225#1" to="1200728225#3" type="hcmc_fleet"/>
    <trip id="64" depart="9064.00" from="1422795954" to="1221994726#2" type="hcmc_fleet"/>
    <trip id="65" depart="9065.00" from="1265822568#0" to="1265822568#3" type="hcmc_fleet"/>
    <trip id="66" depart="9066.00" from="-1163556238#1" to="1221994726#2" type="hcmc_fleet"/>
    <trip id="67" depart="9067.00" from="1200728225#1" to="1267462159#3" type="hcmc_fleet"/>
    <trip id="68" depart="9068.00" from="1200728225#0" to="1200728225#1" type="hcmc_fleet"/>
    <trip id="69" depart="9069.00" from="1265822568#0" to="1265822568#2" type="hcmc_fleet"/>
    <trip id="70" depart="9070.00" from="1265822568#0" to="1265822568#1" type="hcmc_fleet"/>
    <trip id="71" depart="9071.00" from="1221994726#0" to="1221994726#2" type="hcmc_fleet"/>
    <trip id="72" depart="9072.00" from="1200728225#2" to="1200728225#4" type="hcmc_fleet"/>
    <trip id="73" depart="9073.00" from="1265822568#2" to="1200728225#3" type="hcmc_fleet"/>
    <trip id="74" depart="9074.00" from="1200728225#0" to="1221994726#0" type="hcmc_fleet"/>
    <trip id="75" depart="9075.00" from="1422795954" to="1267462159#3" type="hcmc_fleet"/>
    <trip id="76" depart="9076.00" from="1200728225#0" to="1200728225#2" type="hcmc_fleet"/>
    <trip id="77" depart="9077.00" from="1200728225#2" to="1267462159#2" type="hcmc_fleet"/>
    <trip id="78" depart="9078.00" from="1267462159#2" to="1267462159#2" type="hcmc_fleet"/>
    <trip id="79" depart="9079.00" from="1265822568#1" to="1267462159#3" type="hcmc_fleet"/>
    <trip id="80" depart="9080.00" from="1265822568#1" to="1163556238#1" type="hcmc_fleet"/>
    <trip id="81" depart="9081.00" from="1265822568#1" to="1267462159#3" type="hcmc_fleet"/>
    <trip id="82" depart="9082.00" from="1200728225#0" to="1221994726#2" type="hcmc_fleet"/>
    <trip id="83" depart="9083.00" from="1265822568#2" to="1200728225#2" type="hcmc_fleet"/>
    <trip id="84" depart="9084.00" from="1265822568#1" to="1200728225#2" type="hcmc_fleet"/>
    <trip id="85" depart="9085.00" from="1265822568#1" to="1200728225#2" type="hcmc_fleet"/>
    <trip id="86" depart="9086.00" from="1265822568#3" to="1221994726#2" type="hcmc_fleet"/>
    <trip id="87" depart="9087.00" from="1200728225#0" to="1267462159#2" type="hcmc_fleet"/>
    <trip id="88" depart="9088.00" from="1200728225#3" to="1267462159#2" type="hcmc_fleet"/>
    <trip id="89" depart="9089.00" from="1265822568#3" to="1267462159#1" type="hcmc_fleet"/>
    <trip id="90" depart="9090.00" from="1265822568#3" to="1267462159#2" type="hcmc_fleet"/>
    <trip id="91" depart="9091.00" from="1200728225#1" to="1267462159#2" type="hcmc_fleet"/>
    <trip id="92" depart="9092.00" from="1267462159#1" to="1267462159#3" type="hcmc_fleet"/>
    <trip id="93" depart="9093.00" from="1267462159#1" to="1267462159#2" type="hcmc_fleet"/>
    <trip id="94" depart="9094.00" from="1200728225#3" to="1267462159#2" type="hcmc_fleet"/>
    <trip id="95" depart="9095.00" from="1267462159#1" to="1267462159#1" type="hcmc_fleet"/>
    <trip id="96" depart="9096.00" from="1200728225#2" to="1267462159#1" type="hcmc_fleet"/>
    <trip id="97" depart="9097.00" from="1265822568#3" to="1200728225#2" type="hcmc_fleet"/>
    <trip id="98" depart="9098.00" from="1200728225#3" to="1267462159#1" type="hcmc_fleet"/>
    <trip id="99" depart="9099.00" from="1422795954" to="1200728225#3" type="hcmc_fleet"/>
    <trip id="100" depart="9100.00" from="1265822568#1" to="1200728225#4" type="hcmc_fleet"/>
    <trip id="101" depart="9101.00" from="1422795954" to="1221994726#2" type="hcmc_fleet"/>
    <trip id="102" depart="9102.00" from="1422795954" to="1200728225#0" type="hcmc_fleet"/>
    <trip id="103" depart="9103.00" from="1422795954" to="1200728225#1" type="hcmc_fleet"/>
    <trip id="104" depart="9104.00" from="1422795954" to="1200728225#2" type="hcmc_fleet"/>
    <trip id="105" depart="9105.00" from="1200728225#0" to="1221994726#0" type="hcmc_fleet"/>
    <trip id="106" depart="9106.00" from="1265822568#2" to="1200728225#3" type="hcmc_fleet"/>
    <trip id="107" depart="9107.00" from="1265822568#1" to="1221994726#1" type="hcmc_fleet"/>
    <trip id="108" depart="9108.00" from="1200728225#4" to="1221994726#2" type="hcmc_fleet"/>
    <trip id="109" depart="9109.00" from="-1163556238#1" to="1267462159#2" type="hcmc_fleet"/>
    <trip id="110" depart="9110.00" from="1265822568#0" to="1265822568#2" type="hcmc_fleet"/>
    <trip id="111" depart="9111.00" from="1265822568#1" to="1200728225#3" type="hcmc_fleet"/>
    <trip id="112" depart="9112.00" from="1200728225#3" to="1267462159#1" type="hcmc_fleet"/>
    <trip id="113" depart="9113.00" from="1265822568#2" to="1200728225#3" type="hcmc_fleet"/>
    <trip id="114" depart="9114.00" from="1200728225#3" to="1221994726#0" type="hcmc_fleet"/>
    <trip id="115" depart="9115.00" from="1200728225#0" to="1221994726#0" type="hcmc_fleet"/>
    <trip id="116" depart="9116.00" from="1200728225#3" to="1221994726#2" type="hcmc_fleet"/>
    <trip id="117" depart="9117.00" from="1221994726#0" to="1221994726#2" type="hcmc_fleet"/>
    <trip id="118" depart="9118.00" from="1265822568#1" to="1221994726#0" type="hcmc_fleet"/>
    <trip id="119" depart="9119.00" from="1200728225#0" to="1221994726#1" type="hcmc_fleet"/>
    <trip id="120" depart="9120.00" from="1265822568#1" to="1200728225#4" type="hcmc_fleet"/>
    <trip id="121" depart="9121.00" from="1265822568#2" to="1200728225#2" type="hcmc_fleet"/>
    <trip id="122" depart="9122.00" from="1200728225#1" to="1163556238#1" type="hcmc_fleet"/>
    <trip id="123" depart="9123.00" from="1200728225#2" to="1221994726#1" type="hcmc_fleet"/>
    <trip id="124" depart="9124.00" from="1265822568#1" to="1163556238#1" type="hcmc_fleet"/>
    <trip id="125" depart="9125.00" from="1265822568#3" to="1265822568#3" type="hcmc_fleet"/>
    <trip id="126" depart="9126.00" from="1200728225#0" to="1221994726#0" type="hcmc_fleet"/>
    <trip id="127" depart="9127.00" from="1200728225#1" to="1267462159#3" type="hcmc_fleet"/>
    <trip id="128" depart="9128.00" from="1200728225#2" to="1267462159#1" type="hcmc_fleet"/>
    <trip id="129" depart="9129.00" from="1221994726#0" to="1267462159#1" type="hcmc_fleet"/>
    <trip id="130" depart="9130.00" from="1265822568#2" to="1267462159#3" type="hcmc_fleet"/>
    <trip id="131" depart="9131.00" from="1265822568#0" to="1267462159#3" type="hcmc_fleet"/>
    <trip id="132" depart="9132.00" from="1265822568#2" to="1221994726#1" type="hcmc_fleet"/>
    <trip id="133" depart="9133.00" from="1265822568#3" to="1221994726#1" type="hcmc_fleet"/>
    <trip id="134" depart="9134.00" from="1265822568#1" to="1200728225#3" type="hcmc_fleet"/>
    <trip id="135" depart="9135.00" from="1200728225#0" to="1200728225#3" type="hcmc_fleet"/>
    <trip id="136" depart="9136.00" from="1200728225#3" to="1200728225#3" type="hcmc_fleet"/>
    <trip id="137" depart="9137.00" from="1265822568#2" to="1163556238#1" type="hcmc_fleet"/>
    <trip id="138" depart="9138.00" from="1221994726#0" to="1221994726#2" type="hcmc_fleet"/>
    <trip id="139" depart="9139.00" from="1221994726#0" to="1267462159#2" type="hcmc_fleet"/>
    <trip id="140" depart="9140.00" from="1265822568#0" to="1265822568#2" type="hcmc_fleet"/>
    <trip id="141" depart="9141.00" from="1200728225#4" to="1163556238#1" type="hcmc_fleet"/>
    <trip id="142" depart="9142.00" from="1267462159#1" to="1267462159#3" type="hcmc_fleet"/>
    <trip id="143" depart="9143.00" from="1265822568#0" to="1265822568#1" type="hcmc_fleet"/>
    <trip id="144" depart="9144.00" from="1200728225#2" to="1200728225#2" type="hcmc_fleet"/>
    <trip id="145" depart="9145.00" from="1265822568#1" to="1163556238#1" type="hcmc_fleet"/>
    <trip id="146" depart="9146.00" from="1200728225#4" to="1221994726#2" type="hcmc_fleet"/>
    <trip id="147" depart="9147.00" from="1200728225#1" to="1221994726#0" type="hcmc_fleet"/>
    <trip id="148" depart="9148.00" from="1200728225#2" to="1200728225#3" type="hcmc_fleet"/>
    <trip id="149" depart="9149.00" from="1265822568#3" to="1200728225#4" type="hcmc_fleet"/>
    <trip id="150" depart="9150.00" from="1265822568#3" to="1267462159#1" type="hcmc_fleet"/>
    <trip id="151" depart="9151.00" from="-1163556238#1" to="1221994726#2" type="hcmc_fleet"/>
    <trip id="152" depart="9152.00" from="1422795954" to="1200728225#4" type="hcmc_fleet"/>
    <trip id="153" depart="9153.00" from="1265822568#1" to="1265822568#3" type="hcmc_fleet"/>
    <trip id="154" depart="9154.00" from="1265822568#1" to="1265822568#3" type="hcmc_fleet"/>
    <trip id="155" depart="9155.00" from="1422795954" to="1200728225#1" type="hcmc_fleet"/>
    <trip id="156" depart="9156.00" from="1265822568#0" to="1200728225#2" type="hcmc_fleet"/>
    <trip id="157" depart="9157.00" from="1265822568#2" to="1265822568#3" type="hcmc_fleet"/>
    <trip id="158" depart="9158.00" from="1267462159#1" to="1267462159#3" type="hcmc_fleet"/>
    <trip id="159" depart="9159.00" from="1200728225#0" to="1163556238#1" type="hcmc_fleet"/>
    <trip id="160" depart="9160.00" from="1422795954" to="1200728225#4" type="hcmc_fleet"/>
    <trip id="161" depart="9161.00" from="1200728225#0" to="1267462159#3" type="hcmc_fleet"/>
    <trip id="162" depart="9162.00" from="1265822568#3" to="1200728225#4" type="hcmc_fleet"/>
    <trip id="163" depart="9163.00" from="1267462159#1" to="1267462159#1" type="hcmc_fleet"/>
    <trip id="164" depart="9164.00" from="1200728225#0" to="1267462159#3" type="hcmc_fleet"/>
    <trip id="165" depart="9165.00" from="1265822568#1" to="1267462159#1" type="hcmc_fleet"/>
    <trip id="166" depart="9166.00" from="1265822568#2" to="1221994726#0" type="hcmc_fleet"/>
    <trip id="167" depart="9167.00" from="1265822568#3" to="1267462159#3" type="hcmc_fleet"/>
    <trip id="168" depart="9168.00" from="1200728225#3" to="1267462159#1" type="hcmc_fleet"/>
    <trip id="169" depart="9169.00" from="1265822568#0" to="1221994726#1" type="hcmc_fleet"/>
    <trip id="170" depart="9170.00" from="1200728225#3" to="1267462159#1" type="hcmc_fleet"/>
    <trip id="171" depart="9171.00" from="1200728225#4" to="1163556238#1" type="hcmc_fleet"/>
    <trip id="172" depart="9172.00" from="1200728225#4" to="1267462159#2" type="hcmc_fleet"/>
    <trip id="173" depart="9173.00" from="1265822568#2" to="1200728225#3" type="hcmc_fleet"/>
    <trip id="174" depart="9174.00" from="-1163556238#1" to="1267462159#3" type="hcmc_fleet"/>
    <trip id="175" depart="9175.00" from="1200728225#0" to="1200728225#2" type="hcmc_fleet"/>
    <trip id="176" depart="9176.00" from="1265822568#2" to="1200728225#3" type="hcmc_fleet"/>
    <trip id="177" depart="9177.00" from="1265822568#0" to="1221994726#1" type="hcmc_fleet"/>
    <trip id="178" depart="9178.00" from="1265822568#3" to="1200728225#3" type="hcmc_fleet"/>
    <trip id="179" depart="9179.00" from="1265822568#2" to="1200728225#3" type="hcmc_fleet"/>
    <trip id="180" depart="9180.00" from="1265822568#0" to="1265822568#3" type="hcmc_fleet"/>
    <trip id="181" depart="9181.00" from="1200728225#1" to="1200728225#2" type="hcmc_fleet"/>
    <trip id="182" depart="9182.00" from="1422795954" to="1221994726#1" type="hcmc_fleet"/>
    <trip id="183" depart="9183.00" from="1200728225#1" to="1200728225#2" type="hcmc_fleet"/>
    <trip id="184" depart="9184.00" from="1200728225#1" to="1163556238#1" type="hcmc_fleet"/>
    <trip id="185" depart="9185.00" from="1265822568#0" to="1200728225#3" type="hcmc_fleet"/>
    <trip id="186" depart="9186.00" from="1422795954" to="1221994726#2" type="hcmc_fleet"/>
    <trip id="187" depart="9187.00" from="1200728225#1" to="1163556238#1" type="hcmc_fleet"/>
    <trip id="188" depart="9188.00" from="1422795954" to="1221994726#1" type="hcmc_fleet"/>
    <trip id="189" depart="9189.00" from="1265822568#0" to="1200728225#3" type="hcmc_fleet"/>
    <trip id="190" depart="9190.00" from="1422795954" to="1200728225#0" type="hcmc_fleet"/>
    <trip id="191" depart="9191.00" from="1265822568#3" to="1200728225#2" type="hcmc_fleet"/>
    <trip id="192" depart="9192.00" from="1221994726#0" to="1267462159#1" type="hcmc_fleet"/>
    <trip id="193" depart="9193.00" from="1422795954" to="1200728225#3" type="hcmc_fleet"/>
    <trip id="194" depart="9194.00" from="1265822568#1" to="1265822568#1" type="hcmc_fleet"/>
    <trip id="195" depart="9195.00" from="1265822568#3" to="1267462159#3" type="hcmc_fleet"/>
    <trip id="196" depart="9196.00" from="1200728225#2" to="1200728225#2" type="hcmc_fleet"/>
    <trip id="197" depart="9197.00" from="-1163556238#1" to="1221994726#0" type="hcmc_fleet"/>
    <trip id="198" depart="9198.00" from="1265822568#0" to="1200728225#3" type="hcmc_fleet"/>
    <trip id="199" depart="9199.00" from="1265822568#2" to="1221994726#0" type="hcmc_fleet"/>
    <trip id="200" depart="9200.00" from="1265822568#2" to="1267462159#2" type="hcmc_fleet"/>
    <trip id="201" depart="9201.00" from="1265822568#1" to="1267462159#3" type="hcmc_fleet"/>
    <trip id="202" depart="9202.00" from="1221994726#0" to="1221994726#2" type="hcmc_fleet"/>
    <trip id="203" depart="9203.00" from="1265822568#1" to="1267462159#2" type="hcmc_fleet"/>
    <trip id="204" depart="9204.00" from="1200728225#1" to="1200728225#3" type="hcmc_fleet"/>
    <trip id="205" depart="9205.00" from="1265822568#3" to="1221994726#2" type="hcmc_fleet"/>
    <trip id="206" depart="9206.00" from="1265822568#2" to="1265822568#2" type="hcmc_fleet"/>
    <trip id="207" depart="9207.00" from="1422795954" to="1221994726#1" type="hcmc_fleet"/>
    <trip id="208" depart="9208.00" from="-1163556238#1" to="1221994726#0" type="hcmc_fleet"/>
    <trip id="209" depart="9209.00" from="1200728225#0" to="1267462159#3" type="hcmc_fleet"/>
    <trip id="210" depart="9210.00" from="1422795954" to="1267462159#3" type="hcmc_fleet"/>
    <trip id="211" depart="9211.00" from="1265822568#2" to="1200728225#3" type="hcmc_fleet"/>
    <trip id="212" depart="9212.00" from="1265822568#0" to="1265822568#1" type="hcmc_fleet"/>
    <trip id="213" depart="9213.00" from="1265822568#2" to="1267462159#1" type="hcmc_fleet"/>
    <trip id="214" depart="9214.00" from="1200728225#3" to="1267462159#3" type="hcmc_fleet"/>
    <trip id="215" depart="9215.00" from="1200728225#3" to="1267462159#3" type="hcmc_fleet"/>
    <trip id="216" depart="9216.00" from="1221994726#0" to="1221994726#1" type="hcmc_fleet"/>
    <trip id="217" depart="9217.00" from="1265822568#0" to="1221994726#0" type="hcmc_fleet"/>
    <trip id="218" depart="9218.00" from="1200728225#1" to="1200728225#4" type="hcmc_fleet"/>
    <trip id="219" depart="9219.00" from="1265822568#3" to="1200728225#2" type="hcmc_fleet"/>
    <trip id="220" depart="9220.00" from="1265822568#0" to="1267462159#2" type="hcmc_fleet"/>
    <trip id="221" depart="9221.00" from="1200728225#0" to="1267462159#3" type="hcmc_fleet"/>
    <trip id="222" depart="9222.00" from="1265822568#1" to="1200728225#2" type="hcmc_fleet"/>
    <trip id="223" depart="9223.00" from="1200728225#1" to="1221994726#2" type="hcmc_fleet"/>
    <trip id="224" depart="9224.00" from="1422795954" to="1267462159#2" type="hcmc_fleet"/>
    <trip id="225" depart="9225.00" from="1265822568#2" to="1221994726#1" type="hcmc_fleet"/>
    <trip id="226" depart="9226.00" from="1200728225#3" to="1267462159#1" type="hcmc_fleet"/>
    <trip id="227" depart="9227.00" from="1422795954" to="1200728225#2" type="hcmc_fleet"/>
    <trip id="228" depart="9228.00" from="1265822568#0" to="1200728225#4" type="hcmc_fleet"/>
    <trip id="229" depart="9229.00" from="1221994726#0" to="1267462159#3" type="hcmc_fleet"/>
    <trip id="230" depart="9230.00" from="1200728225#3" to="1200728225#3" type="hcmc_fleet"/>
    <trip id="231" depart="9231.00" from="1265822568#0" to="1267462159#3" type="hcmc_fleet"/>
    <trip id="232" depart="9232.00" from="1265822568#0" to="1200728225#4" type="hcmc_fleet"/>
    <trip id="233" depart="9233.00" from="1265822568#0" to="1221994726#2" type="hcmc_fleet"/>
    <trip id="234" depart="9234.00" from="1265822568#0" to="1200728225#2" type="hcmc_fleet"/>
    <trip id="235" depart="9235.00" from="1265822568#3" to="1163556238#1" type="hcmc_fleet"/>
    <trip id="236" depart="9236.00" from="1265822568#1" to="1267462159#1" type="hcmc_fleet"/>
    <trip id="237" depart="9237.00" from="1422795954" to="1221994726#1" type="hcmc_fleet"/>
    <trip id="238" depart="9238.00" from="-1163556238#1" to="1221994726#1" type="hcmc_fleet"/>
    <trip id="239" depart="9239.00" from="1265822568#0" to="1267462159#2" type="hcmc_fleet"/>
    <trip id="240" depart="9240.00" from="1265822568#2" to="1221994726#0" type="hcmc_fleet"/>
    <trip id="241" depart="9241.00" from="1265822568#1" to="1267462159#1" type="hcmc_fleet"/>
    <trip id="242" depart="9242.00" from="1267462159#1" to="1267462159#1" type="hcmc_fleet"/>
    <trip id="243" depart="9243.00" from="1265822568#2" to="1265822568#3" type="hcmc_fleet"/>
    <trip id="244" depart="9244.00" from="1267462159#2" to="1267462159#3" type="hcmc_fleet"/>
    <trip id="245" depart="9245.00" from="1265822568#3" to="1221994726#0" type="hcmc_fleet"/>
    <trip id="246" depart="9246.00" from="1265822568#2" to="1267462159#2" type="hcmc_fleet"/>
    <trip id="247" depart="9247.00" from="1200728225#3" to="1200728225#4" type="hcmc_fleet"/>
    <trip id="248" depart="9248.00" from="1200728225#1" to="1221994726#1" type="hcmc_fleet"/>
    <trip id="249" depart="9249.00" from="1265822568#0" to="1265822568#3" type="hcmc_fleet"/>
    <trip id="250" depart="9250.00" from="1200728225#2" to="1267462159#2" type="hcmc_fleet"/>
    <trip id="251" depart="9251.00" from="1200728225#1" to="1221994726#0" type="hcmc_fleet"/>
    <trip id="252" depart="9252.00" from="1200728225#2" to="1200728225#2" type="hcmc_fleet"/>
    <trip id="253" depart="9253.00" from="-1163556238#1" to="1267462159#1" type="hcmc_fleet"/>
    <trip id="254" depart="9254.00" from="1200728225#1" to="1221994726#0" type="hcmc_fleet"/>
    <trip id="255" depart="9255.00" from="1200728225#4" to="1221994726#2" type="hcmc_fleet"/>
    <trip id="256" depart="9256.00" from="1265822568#1" to="1221994726#0" type="hcmc_fleet"/>
    <trip id="257" depart="9257.00" from="1200728225#2" to="1267462159#1" type="hcmc_fleet"/>
    <trip id="258" depart="9258.00" from="1200728225#1" to="1200728225#4" type="hcmc_fleet"/>
    <trip id="259" depart="9259.00" from="1265822568#0" to="1221994726#2" type="hcmc_fleet"/>
    <trip id="260" depart="9260.00" from="1422795954" to="1200728225#3" type="hcmc_fleet"/>
    <trip id="261" depart="9261.00" from="1200728225#3" to="1221994726#2" type="hcmc_fleet"/>
    <trip id="262" depart="9262.00" from="1265822568#2" to="1265822568#3" type="hcmc_fleet"/>
    <trip id="263" depart="9263.00" from="1265822568#1" to="1200728225#4" type="hcmc_fleet"/>
    <trip id="264" depart="9264.00" from="1265822568#1" to="1265822568#1" type="hcmc_fleet"/>
    <trip id="265" depart="9265.00" from="1265822568#2" to="1265822568#2" type="hcmc_fleet"/>
    <trip id="266" depart="9266.00" from="1265822568#1" to="1267462159#1" type="hcmc_fleet"/>
    <trip id="267" depart="9267.00" from="1265822568#1" to="1267462159#2" type="hcmc_fleet"/>
    <trip id="268" depart="9268.00" from="1265822568#1" to="1200728225#3" type="hcmc_fleet"/>
    <trip id="269" depart="9269.00" from="1221994726#0" to="1221994726#2" type="hcmc_fleet"/>
    <trip id="270" depart="9270.00" from="1265822568#0" to="1267462159#3" type="hcmc_fleet"/>
    <trip id="271" depart="9271.00" from="1422795954" to="1200728225#1" type="hcmc_fleet"/>
    <trip id="272" depart="9272.00" from="1422795954" to="1267462159#1" type="hcmc_fleet"/>
    <trip id="273" depart="9273.00" from="1265822568#2" to="1267462159#3" type="hcmc_fleet"/>
    <trip id="274" depart="9274.00" from="1422795954" to="1267462159#1" type="hcmc_fleet"/>
    <trip id="275" depart="9275.00" from="-1163556238#1" to="1221994726#2" type="hcmc_fleet"/>
    <trip id="276" depart="9276.00" from="1265822568#2" to="1221994726#2" type="hcmc_fleet"/>
    <trip id="277" depart="9277.00" from="1267462159#1" to="1267462159#3" type="hcmc_fleet"/>
    <trip id="278" depart="9278.00" from="1200728225#0" to="1200728225#2" type="hcmc_fleet"/>
    <trip id="279" depart="9279.00" from="-1163556238#1" to="1267462159#2" type="hcmc_fleet"/>
    <trip id="280" depart="9280.00" from="1265822568#0" to="1267462159#2" type="hcmc_fleet"/>
    <trip id="281" depart="9281.00" from="1200728225#2" to="1163556238#1" type="hcmc_fleet"/>
    <trip id="282" depart="9282.00" from="1267462159#1" to="1267462159#2" type="hcmc_fleet"/>
    <trip id="283" depart="9283.00" from="1200728225#3" to="1221994726#0" type="hcmc_fleet"/>
    <trip id="284" depart="9284.00" from="1200728225#1" to="1267462159#3" type="hcmc_fleet"/>
    <trip id="285" depart="9285.00" from="1200728225#3" to="1221994726#1" type="hcmc_fleet"/>
    <trip id="286" depart="9286.00" from="1200728225#0" to="1267462159#2" type="hcmc_fleet"/>
    <trip id="287" depart="9287.00" from="1200728225#1" to="1221994726#0" type="hcmc_fleet"/>
    <trip id="288" depart="9288.00" from="1265822568#2" to="1265822568#3" type="hcmc_fleet"/>
    <trip id="289" depart="9289.00" from="1422795954" to="1221994726#0" type="hcmc_fleet"/>
    <trip id="290" depart="9290.00" from="1422795954" to="1163556238#1" type="hcmc_fleet"/>
    <trip id="291" depart="9291.00" from="1200728225#4" to="1221994726#0" type="hcmc_fleet"/>
    <trip id="292" depart="9292.00" from="1422795954" to="1267462159#1" type="hcmc_fleet"/>
    <trip id="293" depart="9293.00" from="1265822568#0" to="1267462159#3" type="hcmc_fleet"/>
    <trip id="294" depart="9294.00" from="1200728225#4" to="1200728225#4" type="hcmc_fleet"/>
    <trip id="295" depart="9295.00" from="1265822568#1" to="1265822568#1" type="hcmc_fleet"/>
    <trip id="296" depart="9296.00" from="1265822568#0" to="1163556238#1" type="hcmc_fleet"/>
    <trip id="297" depart="9297.00" from="1265822568#3" to="1200728225#2" type="hcmc_fleet"/>
    <trip id="298" depart="9298.00" from="1200728225#0" to="1221994726#2" type="hcmc_fleet"/>
    <trip id="299" depart="9299.00" from="1200728225#2" to="1200728225#2" type="hcmc_fleet"/>
    <trip id="300" depart="9300.00" from="1200728225#1" to="1267462159#2" type="hcmc_fleet"/>
    <trip id="301" depart="9301.00" from="-1163556238#1" to="1267462159#1" type="hcmc_fleet"/>
    <trip id="302" depart="9302.00" from="1265822568#1" to="1163556238#1" type="hcmc_fleet"/>
    <trip id="303" depart="9303.00" from="1200728225#2" to="1200728225#3" type="hcmc_fleet"/>
    <trip id="304" depart="9304.00" from="1200728225#1" to="1163556238#1" type="hcmc_fleet"/>
    <trip id="305" depart="9305.00" from="1265822568#3" to="1221994726#1" type="hcmc_fleet"/>
    <trip id="306" depart="9306.00" from="1265822568#3" to="1221994726#1" type="hcmc_fleet"/>
    <trip id="307" depart="9307.00" from="1265822568#3" to="1221994726#1" type="hcmc_fleet"/>
    <trip id="308" depart="9308.00" from="1200728225#0" to="1221994726#1" type="hcmc_fleet"/>
    <trip id="309" depart="9309.00" from="1422795954" to="1163556238#1" type="hcmc_fleet"/>
    <trip id="310" depart="9310.00" from="1265822568#3" to="1267462159#2" type="hcmc_fleet"/>
    <trip id="311" depart="9311.00" from="1422795954" to="1163556238#1" type="hcmc_fleet"/>
    <trip id="312" depart="9312.00" from="1265822568#2" to="1221994726#1" type="hcmc_fleet"/>