<?xml version="1.0" encoding="UTF-8"?>

<!-- generated on 2025-11-04 20:07:11.433868 by randomTrips.py v1_24_0+0000-b72eb3fabc8
<configuration>
    <net-file value="D:\AfterGradEx\de_traffic_control\map.net.xml"/>
    <additional-files value="D:\AfterGradEx\de_traffic_control\hcmc_vtypes.xml"/>
    <output-trip-file value="D:\AfterGradEx\de_traffic_control\trips_rush_3.trips.xml"/>
    <trip-attributes value="type=&quot;hcmc_fleet&quot;"/>
    <begin value="5400.0"/>
    <end value="7200.0"/>
    <period value="1.0"/>
</configuration>
-->

<routes xmlns:xsi="http://www.w3.org/2001/XMLSchema-instance" xsi:noNamespaceSchemaLocation="http://sumo.dlr.de/xsd/routes_file.xsd">
    <trip id="0" depart="5400.00" from="1265822568#1" to="1163556238#1" type="hcmc_fleet"/>
    <trip id="1" depart="5401.00" from="1200728225#2" to="1221994726#1" type="hcmc_fleet"/>
    <trip id="2" depart="5402.00" from="1265822568#1" to="1221994726#2" type="hcmc_fleet"/>
    <trip id="3" depart="5403.00" from="1200728225#2" to="1221994726#2" type="hcmc_fleet"/>
    <trip id="4" depart="5404.00" from="1422795954" to="1200728225#4" type="hcmc_fleet"/>
    <trip id="5" depart="5405.00" from="1200728225#0" to="1200728225#0" type="hcmc_fleet"/>
    <trip id="6" depart="5406.00" from="1265822568#0" to="1267462159#3" type="hcmc_fleet"/>
    <trip id="7" depart="5407.00" from="1200728225#4" to="1221994726#2" type="hcmc_fleet"/>
    <trip id="8" depart="5408.00" from="1265822568#2" to="1163556238#1" type="hcmc_fleet"/>
    <trip id="9" depart="5409.00" from="1200728225#2" to="1200728225#3" type="hcmc_fleet"/>
    <trip id="10" depart="5410.00" from="1200728225#0" to="1200728225#2" type="hcmc_fleet"/>
    <trip id="11" depart="5411.00" from="1200728225#0" to="1200728225#3" type="hcmc_fleet"/>
    <trip id="12" depart="5412.00" from="1265822568#1" to="1200728225#4" type="hcmc_fleet"/>
    <trip id="13" depart="5413.00" from="1200728225#3" to="1267462159#3" type="hcmc_fleet"/>
    <trip id="14" depart="5414.00" from="1265822568#1" to="1265822568#1" type="hcmc_fleet"/>
    <trip id="15" depart="5415.00" from="1200728225#1" to="1200728225#4" type="hcmc_fleet"/>
    <trip id="16" depart="5416.00" from="1265822568#0" to="1265822568#2" type="hcmc_fleet"/>
    <trip id="17" depart="5417.00" from="1200728225#2" to="1163556238#1" type="hcmc_fleet"/>
    <trip id="18" depart="5418.00" from="1200728225#3" to="1200728225#3" type="hcmc_fleet"/>
    <trip id="19" depart="5419.00" from="1200728225#2" to="1267462159#3" type="hcmc_fleet"/>
    <trip id="20" depart="5420.00" from="1265822568#1" to="1200728225#4" type="hcmc_fleet"/>
    <trip id="21" depart="5421.00" from="1200728225#2" to="1200728225#2" type="hcmc_fleet"/>
    <trip id="22" depart="5422.00" from="1265822568#0" to="1200728225#2" type="hcmc_fleet"/>
    <trip id="23" depart="5423.00" from="1265822568#0" to="1267462159#2" type="hcmc_fleet"/>
    <trip id="24" depart="5424.00" from="1422795954" to="1221994726#1" type="hcmc_fleet"/>
    <trip id="25" depart="5425.00" from="1200728225#0" to="1163556238#1" type="hcmc_fleet"/>
    <trip id="26" depart="5426.00" from="1265822568#3" to="1221994726#0" type="hcmc_fleet"/>
    <trip id="27" depart="5427.00" from="1422795954" to="1221994726#1" type="hcmc_fleet"/>
    <trip id="28" depart="5428.00" from="1422795954" to="1267462159#1" type="hcmc_fleet"/>
    <trip id="29" depart="5429.00" from="1265822568#2" to="1221994726#2" type="hcmc_fleet"/>
    <trip id="30" depart="5430.00" from="1200728225#0" to="1221994726#0" type="hcmc_fleet"/>
    <trip id="31" depart="5431.00" from="1221994726#0" to="1267462159#3" type="hcmc_fleet"/>
    <trip id="32" depart="5432.00" from="1267462159#2" to="1267462159#2" type="hcmc_fleet"/>
    <trip id="33" depart="5433.00" from="1265822568#3" to="1221994726#2" type="hcmc_fleet"/>
    <trip id="34" depart="5434.00" from="1265822568#3" to="1221994726#1" type="hcmc_fleet"/>
    <trip id="35" depart="5435.00" from="-1163556238#1" to="1267462159#2" type="hcmc_fleet"/>
    <trip id="36" depart="5436.00" from="1200728225#3" to="1163556238#1" type="hcmc_fleet"/>
    <trip id="37" depart="5437.00" from="1267462159#2" to="1267462159#3" type="hcmc_fleet"/>
    <trip id="38" depart="5438.00" from="1200728225#0" to="1221994726#1" type="hcmc_fleet"/>
    <trip id="39" depart="5439.00" from="1221994726#1" to="1221994726#2" type="hcmc_fleet"/>
    <trip id="40" depart="5440.00" from="1200728225#2" to="1267462159#2" type="hcmc_fleet"/>
    <trip id="41" depart="5441.00" from="1265822568#0" to="1265822568#2" type="hcmc_fleet"/>
    <trip id="42" depart="5442.00" from="1200728225#2" to="1200728225#3" type="hcmc_fleet"/>
    <trip id="43" depart="5443.00" from="1221994726#0" to="1221994726#1" type="hcmc_fleet"/>
    <trip id="44" depart="5444.00" from="1200728225#0" to="1200728225#2" type="hcmc_fleet"/>
    <trip id="45" depart="5445.00" from="1200728225#4" to="1221994726#2" type="hcmc_fleet"/>
    <trip id="46" depart="5446.00" from="1200728225#2" to="1200728225#2" type="hcmc_fleet"/>
    <trip id="47" depart="5447.00" from="1200728225#2" to="1267462159#2" type="hcmc_fleet"/>
    <trip id="48" depart="5448.00" from="1422795954" to="1221994726#2" type="hcmc_fleet"/>
    <trip id="49" depart="5449.00" from="1200728225#0" to="1221994726#0" type="hcmc_fleet"/>
    <trip id="50" depart="5450.00" from="1221994726#0" to="1221994726#1" type="hcmc_fleet"/>
    <trip id="51" depart="5451.00" from="1265822568#2" to="1265822568#2" type="hcmc_fleet"/>
    <trip id="52" depart="5452.00" from="1422795954" to="1200728225#0" type="hcmc_fleet"/>
    <trip id="53" depart="5453.00" from="1200728225#1" to="1221994726#0" type="hcmc_fleet"/>
    <trip id="54" depart="5454.00" from="1200728225#2" to="1267462159#2" type="hcmc_fleet"/>
    <trip id="55" depart="5455.00" from="1221994726#0" to="1267462159#1" type="hcmc_fleet"/>
    <trip id="56" depart="5456.00" from="1265822568#0" to="1163556238#1" type="hcmc_fleet"/>
    <trip id="57" depart="5457.00" from="1422795954" to="1267462159#1" type="hcmc_fleet"/>
    <trip id="58" depart="5458.00" from="1422795954" to="1267462159#2" type="hcmc_fleet"/>
    <trip id="59" depart="5459.00" from="1200728225#4" to="1267462159#3" type="hcmc_fleet"/>
    <trip id="60" depart="5460.00" from="1221994726#0" to="1221994726#0" type="hcmc_fleet"/>
    <trip id="61" depart="5461.00" from="1422795954" to="1267462159#3" type="hcmc_fleet"/>
    <trip id="62" depart="5462.00" from="1265822568#0" to="1265822568#2" type="hcmc_fleet"/>
    <trip id="63" depart="5463.00" from="1200728225#1" to="1200728225#3" type="hcmc_fleet"/>
    <trip id="64" depart="5464.00" from="1422795954" to="1221994726#2" type="hcmc_fleet"/>
    <trip id="65" depart="5465.00" from="1265822568#0" to="1265822568#3" type="hcmc_fleet"/>
    <trip id="66" depart="5466.00" from="-1163556238#1" to="1221994726#2" type="hcmc_fleet"/>
    <trip id="67" depart="5467.00" from="1200728225#1" to="1267462159#3" type="hcmc_fleet"/>
    <trip id="68" depart="5468.00" from="1200728225#0" to="1200728225#1" type="hcmc_fleet"/>
    <trip id="69" depart="5469.00" from="1265822568#0" to="1265822568#2" type="hcmc_fleet"/>
    <trip id="70" depart="5470.00" from="1265822568#0" to="1265822568#1" type="hcmc_fleet"/>
    <trip id="71" depart="5471.00" from="1221994726#0" to="1221994726#2" type="hcmc_fleet"/>
    <trip id="72" depart="5472.00" from="1200728225#2" to="1200728225#4" type="hcmc_fleet"/>
    <trip id="73" depart="5473.00" from="1265822568#2" to="1200728225#3" type="hcmc_fleet"/>
    <trip id="74" depart="5474.00" from="1200728225#0" to="1221994726#0" type="hcmc_fleet"/>
    <trip id="75" depart="5475.00" from="1422795954" to="1267462159#3" type="hcmc_fleet"/>
    <trip id="76" depart="5476.00" from="1200728225#0" to="1200728225#2" type="hcmc_fleet"/>
    <trip id="77" depart="5477.00" from="1200728225#2" to="1267462159#2" type="hcmc_fleet"/>
    <trip id="78" depart="5478.00" from="1267462159#2" to="1267462159#2" type="hcmc_fleet"/>
    <trip id="79" depart="5479.00" from="1265822568#1" to="1267462159#3" type="hcmc_fleet"/>
    <trip id="80" depart="5480.00" from="1265822568#1" to="1163556238#1" type="hcmc_fleet"/>
    <trip id="81" depart="5481.00" from="1265822568#1" to="1267462159#3" type="hcmc_fleet"/>
    <trip id="82" depart="5482.00" from="1200728225#0" to="1221994726#2" type="hcmc_fleet"/>
    <trip id="83" depart="5483.00" from="1265822568#2" to="1200728225#2" type="hcmc_fleet"/>
    <trip id="84" depart="5484.00" from="1265822568#1" to="1200728225#2" type="hcmc_fleet"/>
    <trip id="85" depart="5485.00" from="1265822568#1" to="1200728225#2" type="hcmc_fleet"/>
    <trip id="86" depart="5486.00" from="1265822568#3" to="1221994726#2" type="hcmc_fleet"/>
    <trip id="87" depart="5487.00" from="1200728225#0" to="1267462159#2" type="hcmc_fleet"/>
    <trip id="88" depart="5488.00" from="1200728225#3" to="1267462159#2" type="hcmc_fleet"/>
    <trip id="89" depart="5489.00" from="1265822568#3" to="1267462159#1" type="hcmc_fleet"/>
    <trip id="90" depart="5490.00" from="1265822568#3" to="1267462159#2" type="hcmc_fleet"/>
    <trip id="91" depart="5491.00" from="1200728225#1" to="1267462159#2" type="hcmc_fleet"/>
    <trip id="92" depart="5492.00" from="1267462159#1" to="1267462159#3" type="hcmc_fleet"/>
    <trip id="93" depart="5493.00" from="1267462159#1" to="1267462159#2" type="hcmc_fleet"/>
    <trip id="94" depart="5494.00" from="1200728225#3" to="1267462159#2" type="hcmc_fleet"/>
    <trip id="95" depart="5495.00" from="1267462159#1" to="1267462159#1" type="hcmc_fleet"/>
    <trip id="96" depart="5496.00" from="1200728225#2" to="1267462159#1" type="hcmc_fleet"/>
    <trip id="97" depart="5497.00" from="1265822568#3" to="1200728225#2" type="hcmc_fleet"/>
    <trip id="98" depart="5498.00" from="1200728225#3" to="1267462159#1" type="hcmc_fleet"/>
    <trip id="99" depart="5499.00" from="1422795954" to="1200728225#3" type="hcmc_fleet"/>
    <trip id="100" depart="5500.00" from="1265822568#1" to="1200728225#4" type="hcmc_fleet"/>
    <trip id="101" depart="5501.00" from="1422795954" to="1221994726#2" type="hcmc_fleet"/>
    <trip id="102" depart="5502.00" from="1422795954" to="1200728225#0" type="hcmc_fleet"/>
    <trip id="103" depart="5503.00" from="1422795954" to="1200728225#1" type="hcmc_fleet"/>
    <trip id="104" depart="5504.00" from="1422795954" to="1200728225#2" type="hcmc_fleet"/>
    <trip id="105" depart="5505.00" from="1200728225#0" to="1221994726#0" type="hcmc_fleet"/>
    <trip id="106" depart="5506.00" from="1265822568#2" to="1200728225#3" type="hcmc_fleet"/>
    <trip id="107" depart="5507.00" from="1265822568#1" to="1221994726#1" type="hcmc_fleet"/>
    <trip id="108" depart="5508.00" from="1200728225#4" to="1221994726#2" type="hcmc_fleet"/>
    <trip id="109" depart="5509.00" from="-1163556238#1" to="1267462159#2" type="hcmc_fleet"/>
    <trip id="110" depart="5510.00" from="1265822568#0" to="1265822568#2" type="hcmc_fleet"/>
    <trip id="111" depart="5511.00" from="1265822568#1" to="1200728225#3" type="hcmc_fleet"/>
    <trip id="112" depart="5512.00" from="1200728225#3" to="1267462159#1" type="hcmc_fleet"/>
    <trip id="113" depart="5513.00" from="1265822568#2" to="1200728225#3" type="hcmc_fleet"/>
    <trip id="114" depart="5514.00" from="1200728225#3" to="1221994726#0" type="hcmc_fleet"/>
    <trip id="115" depart="5515.00" from="1200728225#0" to="1221994726#0" type="hcmc_fleet"/>
    <trip id="116" depart="5516.00" from="1200728225#3" to="1221994726#2" type="hcmc_fleet"/>
    <trip id="117" depart="5517.00" from="1221994726#0" to="1221994726#2" type="hcmc_fleet"/>
    <trip id="118" depart="5518.00" from="1265822568#1" to="1221994726#0" type="hcmc_fleet"/>
    <trip id="119" depart="5519.00" from="1200728225#0" to="1221994726#1" type="hcmc_fleet"/>
    <trip id="120" depart="5520.00" from="1265822568#1" to="1200728225#4" type="hcmc_fleet"/>
    <trip id="121" depart="5521.00" from="1265822568#2" to="1200728225#2" type="hcmc_fleet"/>
    <trip id="122" depart="5522.00" from="1200728225#1" to="1163556238#1" type="hcmc_fleet"/>
    <trip id="123" depart="5523.00" from="1200728225#2" to="1221994726#1" type="hcmc_fleet"/>
    <trip id="124" depart="5524.00" from="1265822568#1" to="1163556238#1" type="hcmc_fleet"/>
    <trip id="125" depart="5525.00" from="1265822568#3" to="1265822568#3" type="hcmc_fleet"/>
    <trip id="126" depart="5526.00" from="1200728225#0" to="1221994726#0" type="hcmc_fleet"/>
    <trip id="127" depart="5527.00" from="1200728225#1" to="1267462159#3" type="hcmc_fleet"/>
    <trip id="128" depart="5528.00" from="1200728225#2" to="1267462159#1" type="hcmc_fleet"/>
    <trip id="129" depart="5529.00" from="1221994726#0" to="1267462159#1" type="hcmc_fleet"/>
    <trip id="130" depart="5530.00" from="1265822568#2" to="1267462159#3" type="hcmc_fleet"/>
    <trip id="131" depart="5531.00" from="1265822568#0" to="1267462159#3" type="hcmc_fleet"/>
    <trip id="132" depart="5532.00" from="1265822568#2" to="1221994726#1" type="hcmc_fleet"/>
    <trip id="133" depart="5533.00" from="1265822568#3" to="1221994726#1" type="hcmc_fleet"/>
    <trip id="134" depart="5534.00" from="1265822568#1" to="1200728225#3" type="hcmc_fleet"/>
    <trip id="135" depart="5535.00" from="1200728225#0" to="1200728225#3" type="hcmc_fleet"/>
    <trip id="136" depart="5536.00" from="1200728225#3" to="1200728225#3" type="hcmc_fleet"/>
    <trip id="137" depart="5537.00" from="1265822568#2" to="1163556238#1" type="hcmc_fleet"/>
    <trip id="138" depart="5538.00" from="1221994726#0" to="1221994726#2" type="hcmc_fleet"/>
    <trip id="139" depart="5539.00" from="1221994726#0" to="1267462159#2" type="hcmc_fleet"/>
    <trip id="140" depart="5540.00" from="1265822568#0" to="1265822568#2" type="hcmc_fleet"/>
    <trip id="141" depart="5541.00" from="1200728225#4" to="1163556238#1" type="hcmc_fleet"/>
    <trip id="142" depart="5542.00" from="1267462159#1" to="1267462159#3" type="hcmc_fleet"/>
    <trip id="143" depart="5543.00" from="1265822568#0" to="1265822568#1" type="hcmc_fleet"/>
    <trip id="144" depart="5544.00" from="1200728225#2" to="1200728225#2" type="hcmc_fleet"/>
    <trip id="145" depart="5545.00" from="1265822568#1" to="1163556238#1" type="hcmc_fleet"/>
    <trip id="146" depart="5546.00" from="1200728225#4" to="1221994726#2" type="hcmc_fleet"/>
    <trip id="147" depart="5547.00" from="1200728225#1" to="1221994726#0" type="hcmc_fleet"/>
    <trip id="148" depart="5548.00" from="1200728225#2" to="1200728225#3" type="hcmc_fleet"/>
    <trip id="149" depart="5549.00" from="1265822568#3" to="1200728225#4" type="hcmc_fleet"/>
    <trip id="150" depart="5550.00" from="1265822568#3" to="1267462159#1" type="hcmc_fleet"/>
    <trip id="151" depart="5551.00" from="-1163556238#1" to="1221994726#2" type="hcmc_fleet"/>
    <trip id="152" depart="5552.00" from="1422795954" to="1200728225#4" type="hcmc_fleet"/>
    <trip id="153" depart="5553.00" from="1265822568#1" to="1265822568#3" type="hcmc_fleet"/>
    <trip id="154" depart="5554.00" from="1265822568#1" to="1265822568#3" type="hcmc_fleet"/>
    <trip id="155" depart="5555.00" from="1422795954" to="1200728225#1" type="hcmc_fleet"/>
    <trip id="156" depart="5556.00" from="1265822568#0" to="1200728225#2" type="hcmc_fleet"/>
    <trip id="157" depart="5557.00" from="1265822568#2" to="1265822568#3" type="hcmc_fleet"/>
    <trip id="158" depart="5558.00" from="1267462159#1" to="1267462159#3" type="hcmc_fleet"/>
    <trip id="159" depart="5559.00" from="1200728225#0" to="1163556238#1" type="hcmc_fleet"/>
    <trip id="160" depart="5560.00" from="1422795954" to="1200728225#4" type="hcmc_fleet"/>
    <trip id="161" depart="5561.00" from="1200728225#0" to="1267462159#3" type="hcmc_fleet"/>
    <trip id="162" depart="5562.00" from="1265822568#3" to="1200728225#4" type="hcmc_fleet"/>
    <trip id="163" depart="5563.00" from="1267462159#1" to="1267462159#1" type="hcmc_fleet"/>
    <trip id="164" depart="5564.00" from="1200728225#0" to="1267462159#3" type="hcmc_fleet"/>
    <trip id="165" depart="5565.00" from="1265822568#1" to="1267462159#1" type="hcmc_fleet"/>
    <trip id="166" depart="5566.00" from="1265822568#2" to="1221994726#0" type="hcmc_fleet"/>
    <trip id="167" depart="5567.00" from="1265822568#3" to="1267462159#3" type="hcmc_fleet"/>
    <trip id="168" depart="5568.00" from="1200728225#3" to="1267462159#1" type="hcmc_fleet"/>
    <trip id="169" depart="5569.00" from="1265822568#0" to="1221994726#1" type="hcmc_fleet"/>
    <trip id="170" depart="5570.00" from="1200728225#3" to="1267462159#1" type="hcmc_fleet"/>
    <trip id="171" depart="5571.00" from="1200728225#4" to="1163556238#1" type="hcmc_fleet"/>
    <trip id="172" depart="5572.00" from="1200728225#4" to="1267462159#2" type="hcmc_fleet"/>
    <trip id="173" depart="5573.00" from="1265822568#2" to="1200728225#3" type="hcmc_fleet"/>
    <trip id="174" depart="5574.00" from="-1163556238#1" to="1267462159#3" type="hcmc_fleet"/>
    <trip id="175" depart="5575.00" from="1200728225#0" to="1200728225#2" type="hcmc_fleet"/>
    <trip id="176" depart="5576.00" from="1265822568#2" to="1200728225#3" type="hcmc_fleet"/>
    <trip id="177" depart="5577.00" from="1265822568#0" to="1221994726#1" type="hcmc_fleet"/>
    <trip id="178" depart="5578.00" from="1265822568#3" to="1200728225#3" type="hcmc_fleet"/>
    <trip id="179" depart="5579.00" from="1265822568#2" to="1200728225#3" type="hcmc_fleet"/>
    <trip id="180" depart="5580.00" from="1265822568#0" to="1265822568#3" type="hcmc_fleet"/>
    <trip id="181" depart="5581.00" from="1200728225#1" to="1200728225#2" type="hcmc_fleet"/>
    <trip id="182" depart="5582.00" from="1422795954" to="1221994726#1" type="hcmc_fleet"/>
    <trip id="183" depart="5583.00" from="1200728225#1" to="1200728225#2" type="hcmc_fleet"/>
    <trip id="184" depart="5584.00" from="1200728225#1" to="1163556238#1" type="hcmc_fleet"/>
    <trip id="185" depart="5585.00" from="1265822568#0" to="1200728225#3" type="hcmc_fleet"/>
    <trip id="186" depart="5586.00" from="1422795954" to="1221994726#2" type="hcmc_fleet"/>
    <trip id="187" depart="5587.00" from="1200728225#1" to="1163556238#1" type="hcmc_fleet"/>
    <trip id="188" depart="5588.00" from="1422795954" to="1221994726#1" type="hcmc_fleet"/>
    <trip id="189" depart="5589.00" from="1265822568#0" to="1200728225#3" type="hcmc_fleet"/>
    <trip id="190" depart="5590.00" from="1422795954" to="1200728225#0" type="hcmc_fleet"/>
    <trip id="191" depart="5591.00" from="1265822568#3" to="1200728225#2" type="hcmc_fleet"/>
    <trip id="192" depart="5592.00" from="1221994726#0" to="1267462159#1" type="hcmc_fleet"/>
    <trip id="193" depart="5593.00" from="1422795954" to="1200728225#3" type="hcmc_fleet"/>
    <trip id="194" depart="5594.00" from="1265822568#1" to="1265822568#1" type="hcmc_fleet"/>
    <trip id="195" depart="5595.00" from="1265822568#3" to="1267462159#3" type="hcmc_fleet"/>
    <trip id="196" depart="5596.00" from="1200728225#2" to="1200728225#2" type="hcmc_fleet"/>
    <trip id="197" depart="5597.00" from="-1163556238#1" to="1221994726#0" type="hcmc_fleet"/>
    <trip id="198" depart="5598.00" from="1265822568#0" to="1200728225#3" type="hcmc_fleet"/>
    <trip id="199" depart="5599.00" from="1265822568#2" to="1221994726#0" type="hcmc_fleet"/>
    <trip id="200" depart="5600.00" from="1265822568#2" to="1267462159#2" type="hcmc_fleet"/>
    <trip id="201" depart="5601.00" from="1265822568#1" to="1267462159#3" type="hcmc_fleet"/>
    <trip id="202" depart="5602.00" from="1221994726#0" to="1221994726#2" type="hcmc_fleet"/>
    <trip id="203" depart="5603.00" from="1265822568#1" to="1267462159#2" type="hcmc_fleet"/>
    <trip id="204" depart="5604.00" from="1200728225#1" to="1200728225#3" type="hcmc_fleet"/>
    <trip id="205" depart="5605.00" from="1265822568#3" to="1221994726#2" type="hcmc_fleet"/>
    <trip id="206" depart="5606.00" from="1265822568#2" to="1265822568#2" type="hcmc_fleet"/>
    <trip id="207" depart="5607.00" from="1422795954" to="1221994726#1" type="hcmc_fleet"/>
    <trip id="208" depart="5608.00" from="-1163556238#1" to="1221994726#0" type="hcmc_fleet"/>
    <trip id="209" depart="5609.00" from="1200728225#0" to="1267462159#3" type="hcmc_fleet"/>
    <trip id="210" depart="5610.00" from="1422795954" to="1267462159#3" type="hcmc_fleet"/>
    <trip id="211" depart="5611.00" from="1265822568#2" to="1200728225#3" type="hcmc_fleet"/>
    <trip id="212" depart="5612.00" from="1265822568#0" to="1265822568#1" type="hcmc_fleet"/>
    <trip id="213" depart="5613.00" from="1265822568#2" to="1267462159#1" type="hcmc_fleet"/>
    <trip id="214" depart="5614.00" from="1200728225#3" to="1267462159#3" type="hcmc_fleet"/>
    <trip id="215" depart="5615.00" from="1200728225#3" to="1267462159#3" type="hcmc_fleet"/>
    <trip id="216" depart="5616.00" from="1221994726#0" to="1221994726#1" type="hcmc_fleet"/>
    <trip id="217" depart="5617.00" from="1265822568#0" to="1221994726#0" type="hcmc_fleet"/>
    <trip id="218" depart="5618.00" from="1200728225#1" to="1200728225#4" type="hcmc_fleet"/>
    <trip id="219" depart="5619.00" from="1265822568#3" to="1200728225#2" type="hcmc_fleet"/>
    <trip id="220" depart="5620.00" from="1265822568#0" to="1267462159#2" type="hcmc_fleet"/>
    <trip id="221" depart="5621.00" from="1200728225#0" to="1267462159#3" type="hcmc_fleet"/>
    <trip id="222" depart="5622.00" from="1265822568#1" to="1200728225#2" type="hcmc_fleet"/>
    <trip id="223" depart="5623.00" from="1200728225#1" to="1221994726#2" type="hcmc_fleet"/>
    <trip id="224" depart="5624.00" from="1422795954" to="1267462159#2" type="hcmc_fleet"/>
    <trip id="225" depart="5625.00" from="1265822568#2" to="1221994726#1" type="hcmc_fleet"/>
    <trip id="226" depart="5626.00" from="1200728225#3" to="1267462159#1" type="hcmc_fleet"/>
    <trip id="227" depart="5627.00" from="1422795954" to="1200728225#2" type="hcmc_fleet"/>
    <trip id="228" depart="5628.00" from="1265822568#0" to="1200728225#4" type="hcmc_fleet"/>
    <trip id="229" depart="5629.00" from="1221994726#0" to="1267462159#3" type="hcmc_fleet"/>
    <trip id="230" depart="5630.00" from="1200728225#3" to="1200728225#3" type="hcmc_fleet"/>
    <trip id="231" depart="5631.00" from="1265822568#0" to="1267462159#3" type="hcmc_fleet"/>
    <trip id="232" depart="5632.00" from="1265822568#0" to="1200728225#4" type="hcmc_fleet"/>
    <trip id="233" depart="5633.00" from="1265822568#0" to="1221994726#2" type="hcmc_fleet"/>
    <trip id="234" depart="5634.00" from="1265822568#0" to="1200728225#2" type="hcmc_fleet"/>
    <trip id="235" depart="5635.00" from="1265822568#3" to="1163556238#1" type="hcmc_fleet"/>
    <trip id="236" depart="5636.00" from="1265822568#1" to="1267462159#1" type="hcmc_fleet"/>
    <trip id="237" depart="5637.00" from="1422795954" to="1221994726#1" type="hcmc_fleet"/>
    <trip id="238" depart="5638.00" from="-1163556238#1" to="1221994726#1" type="hcmc_fleet"/>
    <trip id="239" depart="5639.00" from="1265822568#0" to="1267462159#2" type="hcmc_fleet"/>
    <trip id="240" depart="5640.00" from="1265822568#2" to="1221994726#0" type="hcmc_fleet"/>
    <trip id="241" depart="5641.00" from="1265822568#1" to="1267462159#1" type="hcmc_fleet"/>
    <trip id="242" depart="5642.00" from="1267462159#1" to="1267462159#1" type="hcmc_fleet"/>
    <trip id="243" depart="5643.00" from="1265822568#2" to="1265822568#3" type="hcmc_fleet"/>
    <trip id="244" depart="5644.00" from="1267462159#2" to="1267462159#3" type="hcmc_fleet"/>
    <trip id="245" depart="5645.00" from="1265822568#3" to="1221994726#0" type="hcmc_fleet"/>
    <trip id="246" depart="5646.00" from="1265822568#2" to="1267462159#2" type="hcmc_fleet"/>
    <trip id="247" depart="5647.00" from="1200728225#3" to="1200728225#4" type="hcmc_fleet"/>
    <trip id="248" depart="5648.00" from="1200728225#1" to="1221994726#1" type="hcmc_fleet"/>
    <trip id="249" depart="5649.00" from="1265822568#0" to="1265822568#3" type="hcmc_fleet"/>
    <trip id="250" depart="5650.00" from="1200728225#2" to="1267462159#2" type="hcmc_fleet"/>
    <trip id="251" depart="5651.00" from="1200728225#1" to="1221994726#0" type="hcmc_fleet"/>
    <trip id="252" depart="5652.00" from="1200728225#2" to="1200728225#2" type="hcmc_fleet"/>
    <trip id="253" depart="5653.00" from="-1163556238#1" to="1267462159#1" type="hcmc_fleet"/>
    <trip id="254" depart="5654.00" from="1200728225#1" to="1221994726#0" type="hcmc_fleet"/>
    <trip id="255" depart="5655.00" from="1200728225#4" to="1221994726#2" type="hcmc_fleet"/>
    <trip id="256" depart="5656.00" from="1265822568#1" to="1221994726#0" type="hcmc_fleet"/>
    <trip id="257" depart="5657.00" from="1200728225#2" to="1267462159#1" type="hcmc_fleet"/>
    <trip id="258" depart="5658.00" from="1200728225#1" to="1200728225#4" type="hcmc_fleet"/>
    <trip id="259" depart="5659.00" from="1265822568#0" to="1221994726#2" type="hcmc_fleet"/>
    <trip id="260" depart="5660.00" from="1422795954" to="1200728225#3" type="hcmc_fleet"/>
    <trip id="261" depart="5661.00" from="1200728225#3" to="1221994726#2" type="hcmc_fleet"/>
    <trip id="262" depart="5662.00" from="1265822568#2" to="1265822568#3" type="hcmc_fleet"/>
    <trip id="263" depart="5663.00" from="1265822568#1" to="1200728225#4" type="hcmc_fleet"/>
    <trip id="264" depart="5664.00" from="1265822568#1" to="1265822568#1" type="hcmc_fleet"/>
    <trip id="265" depart="5665.00" from="1265822568#2" to="1265822568#2" type="hcmc_fleet"/>
    <trip id="266" depart="5666.00" from="1265822568#1" to="1267462159#1" type="hcmc_fleet"/>
    <trip id="267" depart="5667.00" from="1265822568#1" to="1267462159#2" type="hcmc_fleet"/>
    <trip id="268" depart="5668.00" from="1265822568#1" to="1200728225#3" type="hcmc_fleet"/>
    <trip id="269" depart="5669.00" from="1221994726#0" to="1221994726#2" type="hcmc_fleet"/>
    <trip id="270" depart="5670.00" from="1265822568#0" to="1267462159#3" type="hcmc_fleet"/>
    <trip id="271" depart="5671.00" from="1422795954" to="1200728225#1" type="hcmc_fleet"/>
    <trip id="272" depart="5672.00" from="1422795954" to="1267462159#1" type="hcmc_fleet"/>
    <trip id="273" depart="5673.00" from="1265822568#2" to="1267462159#3" type="hcmc_fleet"/>
    <trip id="274" depart="5674.00" from="1422795954" to="1267462159#1" type="hcmc_fleet"/>
    <trip id="275" depart="5675.00" from="-1163556238#1" to="1221994726#2" type="hcmc_fleet"/>
    <trip id="276" depart="5676.00" from="1265822568#2" to="1221994726#2" type="hcmc_fleet"/>
    <trip id="277" depart="5677.00" from="1267462159#1" to="1267462159#3" type="hcmc_fleet"/>
    <trip id="278" depart="5678.00" from="1200728225#0" to="1200728225#2" type="hcmc_fleet"/>
    <trip id="279" depart="5679.00" from="-1163556238#1" to="1267462159#2" type="hcmc_fleet"/>
    <trip id="280" depart="5680.00" from="1265822568#0" to="1267462159#2" type="hcmc_fleet"/>
    <trip id="281" depart="5681.00" from="1200728225#2" to="1163556238#1" type="hcmc_fleet"/>
    <trip id="282" depart="5682.00" from="1267462159#1" to="1267462159#2" type="hcmc_fleet"/>
    <trip id="283" depart="5683.00" from="1200728225#3" to="1221994726#0" type="hcmc_fleet"/>
    <trip id="284" depart="5684.00" from="1200728225#1" to="1267462159#3" type="hcmc_fleet"/>
    <trip id="285" depart="5685.00" from="1200728225#3" to="1221994726#1" type="hcmc_fleet"/>
    <trip id="286" depart="5686.00" from="1200728225#0" to="1267462159#2" type="hcmc_fleet"/>
    <trip id="287" depart="5687.00" from="1200728225#1" to="1221994726#0" type="hcmc_fleet"/>
    <trip id="288" depart="5688.00" from="1265822568#2" to="1265822568#3" type="hcmc_fleet"/>
    <trip id="289" depart="5689.00" from="1422795954" to="1221994726#0" type="hcmc_fleet"/>
    <trip id="290" depart="5690.00" from="1422795954" to="1163556238#1" type="hcmc_fleet"/>
    <trip id="291" depart="5691.00" from="1200728225#4" to="1221994726#0" type="hcmc_fleet"/>
    <trip id="292" depart="5692.00" from="1422795954" to="1267462159#1" type="hcmc_fleet"/>
    <trip id="293" depart="5693.00" from="1265822568#0" to="1267462159#3" type="hcmc_fleet"/>
    <trip id="294" depart="5694.00" from="1200728225#4" to="1200728225#4" type="hcmc_fleet"/>
    <trip id="295" depart="5695.00" from="1265822568#1" to="1265822568#1" type="hcmc_fleet"/>
    <trip id="296" depart="5696.00" from="1265822568#0" to="1163556238#1" type="hcmc_fleet"/>
    <trip id="297" depart="5697.00" from="1265822568#3" to="1200728225#2" type="hcmc_fleet"/>
    <trip id="298" depart="5698.00" from="1200728225#0" to="1221994726#2" type="hcmc_fleet"/>
    <trip id="299" depart="5699.00" from="1200728225#2" to="1200728225#2" type="hcmc_fleet"/>
    <trip id="300" depart="5700.00" from="1200728225#1" to="1267462159#2" type="hcmc_fleet"/>
    <trip id="301" depart="5701.00" from="-1163556238#1" to="1267462159#1" type="hcmc_fleet"/>
    <trip id="302" depart="5702.00" from="1265822568#1" to="1163556238#1" type="hcmc_fleet"/>
    <trip id="303" depart="5703.00" from="1200728225#2" to="1200728225#3" type="hcmc_fleet"/>
    <trip id="304" depart="5704.00" from="1200728225#1" to="1163556238#1" type="hcmc_fleet"/>
    <trip id="305" depart="5705.00" from="1265822568#3" to="1221994726#1" type="hcmc_fleet"/>
    <trip id="306" depart="5706.00" from="1265822568#3" to="1221994726#1" type="hcmc_fleet"/>
    <trip id="307" depart="5707.00" from="1265822568#3" to="1221994726#1" type="hcmc_fleet"/>
    <trip id="308" depart="5708.00" from="1200728225#0" to="1221994726#1" type="hcmc_fleet"/>
    <trip id="309" depart="5709.00" from="1422795954" to="1163556238#1" type="hcmc_fleet"/>
    <trip id="310" depart="5710.00" from="1265822568#3" to="1267462159#2" type="hcmc_fleet"/>
    <trip id="311" depart="5711.00" from="1422795954" to="1163556238#1" type="hcmc_fleet"/>
    <trip id="312" depart="5712.00" from="1265822568#2" to="1221994726#1" type="hcmc_fleet"/>