<?xml version="1.0" encoding="UTF-8"?>

<!-- generated on 2025-11-04 20:08:08.757735 by randomTrips.py v1_24_0+0000-b72eb3fabc8
<configuration>
    <net-file value="D:\AfterGradEx\de_traffic_control\map.net.xml"/>
    <additional-files value="D:\AfterGradEx\de_traffic_control\hcmc_vtypes.xml"/>
    <output-trip-file value="D:\AfterGradEx\de_traffic_control\trips_rush_8.trips.xml"/>
    <trip-attributes value="type=&quot;hcmc_fleet&quot;"/>
    <begin value="14400.0"/>
    <end value="16200.0"/>
    <period value="2.0"/>
</configuration>
-->

<routes xmlns:xsi="http://www.w3.org/2001/XMLSchema-instance" xsi:noNamespaceSchemaLocation="http://sumo.dlr.de/xsd/routes_file.xsd">
    <trip id="0" depart="14400.00" from="1265822568#1" to="1163556238#1" type="hcmc_fleet"/>
    <trip id="1" depart="14402.00" from="1200728225#2" to="1221994726#1" type="hcmc_fleet"/>
    <trip id="2" depart="14404.00" from="1265822568#1" to="1221994726#2" type="hcmc_fleet"/>
    <trip id="3" depart="14406.00" from="1200728225#2" to="1221994726#2" type="hcmc_fleet"/>
    <trip id="4" depart="14408.00" from="1422795954" to="1200728225#4" type="hcmc_fleet"/>
    <trip id="5" depart="14410.00" from="1200728225#0" to="1200728225#0" type="hcmc_fleet"/>
    <trip id="6" depart="14412.00" from="1265822568#0" to="1267462159#3" type="hcmc_fleet"/>
    <trip id="7" depart="14414.00" from="1200728225#4" to="1221994726#2" type="hcmc_fleet"/>
    <trip id="8" depart="14416.00" from="1265822568#2" to="1163556238#1" type="hcmc_fleet"/>
    <trip id="9" depart="14418.00" from="1200728225#2" to="1200728225#3" type="hcmc_fleet"/>
    <trip id="10" depart="14420.00" from="1200728225#0" to="1200728225#2" type="hcmc_fleet"/>
    <trip id="11" depart="14422.00" from="1200728225#0" to="1200728225#3" type="hcmc_fleet"/>
    <trip id="12" depart="14424.00" from="1265822568#1" to="1200728225#4" type="hcmc_fleet"/>
    <trip id="13" depart="14426.00" from="1200728225#3" to="1267462159#3" type="hcmc_fleet"/>
    <trip id="14" depart="14428.00" from="1265822568#1" to="1265822568#1" type="hcmc_fleet"/>
    <trip id="15" depart="14430.00" from="1200728225#1" to="1200728225#4" type="hcmc_fleet"/>
    <trip id="16" depart="14432.00" from="1265822568#0" to="1265822568#2" type="hcmc_fleet"/>
    <trip id="17" depart="14434.00" from="1200728225#2" to="1163556238#1" type="hcmc_fleet"/>
    <trip id="18" depart="14436.00" from="1200728225#3" to="1200728225#3" type="hcmc_fleet"/>
    <trip id="19" depart="14438.00" from="1200728225#2" to="1267462159#3" type="hcmc_fleet"/>
    <trip id="20" depart="14440.00" from="1265822568#1" to="1200728225#4" type="hcmc_fleet"/>
    <trip id="21" depart="14442.00" from="1200728225#2" to="1200728225#2" type="hcmc_fleet"/>
    <trip id="22" depart="14444.00" from="1265822568#0" to="1200728225#2" type="hcmc_fleet"/>
    <trip id="23" depart="14446.00" from="1265822568#0" to="1267462159#2" type="hcmc_fleet"/>
    <trip id="24" depart="14448.00" from="1422795954" to="1221994726#1" type="hcmc_fleet"/>
    <trip id="25" depart="14450.00" from="1200728225#0" to="1163556238#1" type="hcmc_fleet"/>
    <trip id="26" depart="14452.00" from="1265822568#3" to="1221994726#0" type="hcmc_fleet"/>
    <trip id="27" depart="14454.00" from="1422795954" to="1221994726#1" type="hcmc_fleet"/>
    <trip id="28" depart="14456.00" from="1422795954" to="1267462159#1" type="hcmc_fleet"/>
    <trip id="29" depart="14458.00" from="1265822568#2" to="1221994726#2" type="hcmc_fleet"/>
    <trip id="30" depart="14460.00" from="1200728225#0" to="1221994726#0" type="hcmc_fleet"/>
    <trip id="31" depart="14462.00" from="1221994726#0" to="1267462159#3" type="hcmc_fleet"/>
    <trip id="32" depart="14464.00" from="1267462159#2" to="1267462159#2" type="hcmc_fleet"/>
    <trip id="33" depart="14466.00" from="1265822568#3" to="1221994726#2" type="hcmc_fleet"/>
    <trip id="34" depart="14468.00" from="1265822568#3" to="1221994726#1" type="hcmc_fleet"/>
    <trip id="35" depart="14470.00" from="-1163556238#1" to="1267462159#2" type="hcmc_fleet"/>
    <trip id="36" depart="14472.00" from="1200728225#3" to="1163556238#1" type="hcmc_fleet"/>
    <trip id="37" depart="14474.00" from="1267462159#2" to="1267462159#3" type="hcmc_fleet"/>
    <trip id="38" depart="14476.00" from="1200728225#0" to="1221994726#1" type="hcmc_fleet"/>
    <trip id="39" depart="14478.00" from="1221994726#1" to="1221994726#2" type="hcmc_fleet"/>
    <trip id="40" depart="14480.00" from="1200728225#2" to="1267462159#2" type="hcmc_fleet"/>
    <trip id="41" depart="14482.00" from="1265822568#0" to="1265822568#2" type="hcmc_fleet"/>
    <trip id="42" depart="14484.00" from="1200728225#2" to="1200728225#3" type="hcmc_fleet"/>
    <trip id="43" depart="14486.00" from="1221994726#0" to="1221994726#1" type="hcmc_fleet"/>
    <trip id="44" depart="14488.00" from="1200728225#0" to="1200728225#2" type="hcmc_fleet"/>
    <trip id="45" depart="14490.00" from="1200728225#4" to="1221994726#2" type="hcmc_fleet"/>
    <trip id="46" depart="14492.00" from="1200728225#2" to="1200728225#2" type="hcmc_fleet"/>
    <trip id="47" depart="14494.00" from="1200728225#2" to="1267462159#2" type="hcmc_fleet"/>
    <trip id="48" depart="14496.00" from="1422795954" to="1221994726#2" type="hcmc_fleet"/>
    <trip id="49" depart="14498.00" from="1200728225#0" to="1221994726#0" type="hcmc_fleet"/>
    <trip id="50" depart="14500.00" from="1221994726#0" to="1221994726#1" type="hcmc_fleet"/>
    <trip id="51" depart="14502.00" from="1265822568#2" to="1265822568#2" type="hcmc_fleet"/>
    <trip id="52" depart="14504.00" from="1422795954" to="1200728225#0" type="hcmc_fleet"/>
    <trip id="53" depart="14506.00" from="1200728225#1" to="1221994726#0" type="hcmc_fleet"/>
    <trip id="54" depart="14508.00" from="1200728225#2" to="1267462159#2" type="hcmc_fleet"/>
    <trip id="55" depart="14510.00" from="1221994726#0" to="1267462159#1" type="hcmc_fleet"/>
    <trip id="56" depart="14512.00" from="1265822568#0" to="1163556238#1" type="hcmc_fleet"/>
    <trip id="57" depart="14514.00" from="1422795954" to="1267462159#1" type="hcmc_fleet"/>
    <trip id="58" depart="14516.00" from="1422795954" to="1267462159#2" type="hcmc_fleet"/>
    <trip id="59" depart="14518.00" from="1200728225#4" to="1267462159#3" type="hcmc_fleet"/>
    <trip id="60" depart="14520.00" from="1221994726#0" to="1221994726#0" type="hcmc_fleet"/>
    <trip id="61" depart="14522.00" from="1422795954" to="1267462159#3" type="hcmc_fleet"/>
    <trip id="62" depart="14524.00" from="1265822568#0" to="1265822568#2" type="hcmc_fleet"/>
    <trip id="63" depart="14526.00" from="1200728225#1" to="1200728225#3" type="hcmc_fleet"/>
    <trip id="64" depart="14528.00" from="1422795954" to="1221994726#2" type="hcmc_fleet"/>
    <trip id="65" depart="14530.00" from="1265822568#0" to="1265822568#3" type="hcmc_fleet"/>
    <trip id="66" depart="14532.00" from="-1163556238#1" to="1221994726#2" type="hcmc_fleet"/>
    <trip id="67" depart="14534.00" from="1200728225#1" to="1267462159#3" type="hcmc_fleet"/>
    <trip id="68" depart="14536.00" from="1200728225#0" to="1200728225#1" type="hcmc_fleet"/>
    <trip id="69" depart="14538.00" from="1265822568#0" to="1265822568#2" type="hcmc_fleet"/>
    <trip id="70" depart="14540.00" from="1265822568#0" to="1265822568#1" type="hcmc_fleet"/>
    <trip id="71" depart="14542.00" from="1221994726#0" to="1221994726#2" type="hcmc_fleet"/>
    <trip id="72" depart="14544.00" from="1200728225#2" to="1200728225#4" type="hcmc_fleet"/>
    <trip id="73" depart="14546.00" from="1265822568#2" to="1200728225#3" type="hcmc_fleet"/>
    <trip id="74" depart="14548.00" from="1200728225#0" to="1221994726#0" type="hcmc_fleet"/>
    <trip id="75" depart="14550.00" from="1422795954" to="1267462159#3" type="hcmc_fleet"/>
    <trip id="76" depart="14552.00" from="1200728225#0" to="1200728225#2" type="hcmc_fleet"/>
    <trip id="77" depart="14554.00" from="1200728225#2" to="1267462159#2" type="hcmc_fleet"/>
    <trip id="78" depart="14556.00" from="1267462159#2" to="1267462159#2" type="hcmc_fleet"/>
    <trip id="79" depart="14558.00" from="1265822568#1" to="1267462159#3" type="hcmc_fleet"/>
    <trip id="80" depart="14560.00" from="1265822568#1" to="1163556238#1" type="hcmc_fleet"/>
    <trip id="81" depart="14562.00" from="1265822568#1" to="1267462159#3" type="hcmc_fleet"/>
    <trip id="82" depart="14564.00" from="1200728225#0" to="1221994726#2" type="hcmc_fleet"/>
    <trip id="83" depart="14566.00" from="1265822568#2" to="1200728225#2" type="hcmc_fleet"/>
    <trip id="84" depart="14568.00" from="1265822568#1" to="1200728225#2" type="hcmc_fleet"/>
    <trip id="85" depart="14570.00" from="1265822568#1" to="1200728225#2" type="hcmc_fleet"/>
    <trip id="86" depart="14572.00" from="1265822568#3" to="1221994726#2" type="hcmc_fleet"/>
    <trip id="87" depart="14574.00" from="1200728225#0" to="1267462159#2" type="hcmc_fleet"/>
    <trip id="88" depart="14576.00" from="1200728225#3" to="1267462159#2" type="hcmc_fleet"/>
    <trip id="89" depart="14578.00" from="1265822568#3" to="1267462159#1" type="hcmc_fleet"/>
    <trip id="90" depart="14580.00" from="1265822568#3" to="1267462159#2" type="hcmc_fleet"/>
    <trip id="91" depart="14582.00" from="1200728225#1" to="1267462159#2" type="hcmc_fleet"/>
    <trip id="92" depart="14584.00" from="1267462159#1" to="1267462159#3" type="hcmc_fleet"/>
    <trip id="93" depart="14586.00" from="1267462159#1" to="1267462159#2" type="hcmc_fleet"/>
    <trip id="94" depart="14588.00" from="1200728225#3" to="1267462159#2" type="hcmc_fleet"/>
    <trip id="95" depart="14590.00" from="1267462159#1" to="1267462159#1" type="hcmc_fleet"/>
    <trip id="96" depart="14592.00" from="1200728225#2" to="1267462159#1" type="hcmc_fleet"/>
    <trip id="97" depart="14594.00" from="1265822568#3" to="1200728225#2" type="hcmc_fleet"/>
    <trip id="98" depart="14596.00" from="1200728225#3" to="1267462159#1" type="hcmc_fleet"/>
    <trip id="99" depart="14598.00" from="1422795954" to="1200728225#3" type="hcmc_fleet"/>
    <trip id="100" depart="14600.00" from="1265822568#1" to="1200728225#4" type="hcmc_fleet"/>
    <trip id="101" depart="14602.00" from="1422795954" to="1221994726#2" type="hcmc_fleet"/>
    <trip id="102" depart="14604.00" from="1422795954" to="1200728225#0" type="hcmc_fleet"/>
    <trip id="103" depart="14606.00" from="1422795954" to="1200728225#1" type="hcmc_fleet"/>
    <trip id="104" depart="14608.00" from="1422795954" to="1200728225#2" type="hcmc_fleet"/>
    <trip id="105" depart="14610.00" from="1200728225#0" to="1221994726#0" type="hcmc_fleet"/>
    <trip id="106" depart="14612.00" from="1265822568#2" to="1200728225#3" type="hcmc_fleet"/>
    <trip id="107" depart="14614.00" from="1265822568#1" to="1221994726#1" type="hcmc_fleet"/>
    <trip id="108" depart="14616.00" from="1200728225#4" to="1221994726#2" type="hcmc_fleet"/>
    <trip id="109" depart="14618.00" from="-1163556238#1" to="1267462159#2" type="hcmc_fleet"/>
    <trip id="110" depart="14620.00" from="1265822568#0" to="1265822568#2" type="hcmc_fleet"/>
    <trip id="111" depart="14622.00" from="1265822568#1" to="1200728225#3" type="hcmc_fleet"/>
    <trip id="112" depart="14624.00" from="1200728225#3" to="1267462159#1" type="hcmc_fleet"/>
    <trip id="113" depart="14626.00" from="1265822568#2" to="1200728225#3" type="hcmc_fleet"/>
    <trip id="114" depart="14628.00" from="1200728225#3" to="1221994726#0" type="hcmc_fleet"/>
    <trip id="115" depart="14630.00" from="1200728225#0" to="1221994726#0" type="hcmc_fleet"/>
    <trip id="116" depart="14632.00" from="1200728225#3" to="1221994726#2" type="hcmc_fleet"/>
    <trip id="117" depart="14634.00" from="1221994726#0" to="1221994726#2" type="hcmc_fleet"/>
    <trip id="118" depart="14636.00" from="1265822568#1" to="1221994726#0" type="hcmc_fleet"/>
    <trip id="119" depart="14638.00" from="1200728225#0" to="1221994726#1" type="hcmc_fleet"/>
    <trip id="120" depart="14640.00" from="1265822568#1" to="1200728225#4" type="hcmc_fleet"/>
    <trip id="121" depart="14642.00" from="1265822568#2" to="1200728225#2" type="hcmc_fleet"/>
    <trip id="122" depart="14644.00" from="1200728225#1" to="1163556238#1" type="hcmc_fleet"/>
    <trip id="123" depart="14646.00" from="1200728225#2" to="1221994726#1" type="hcmc_fleet"/>
    <trip id="124" depart="14648.00" from="1265822568#1" to="1163556238#1" type="hcmc_fleet"/>
    <trip id="125" depart="14650.00" from="1265822568#3" to="1265822568#3" type="hcmc_fleet"/>
    <trip id="126" depart="14652.00" from="1200728225#0" to="1221994726#0" type="hcmc_fleet"/>
    <trip id="127" depart="14654.00" from="1200728225#1" to="1267462159#3" type="hcmc_fleet"/>
    <trip id="128" depart="14656.00" from="1200728225#2" to="1267462159#1" type="hcmc_fleet"/>
    <trip id="129" depart="14658.00" from="1221994726#0" to="1267462159#1" type="hcmc_fleet"/>
    <trip id="130" depart="14660.00" from="1265822568#2" to="1267462159#3" type="hcmc_fleet"/>
    <trip id="131" depart="14662.00" from="1265822568#0" to="1267462159#3" type="hcmc_fleet"/>
    <trip id="132" depart="14664.00" from="1265822568#2" to="1221994726#1" type="hcmc_fleet"/>
    <trip id="133" depart="14666.00" from="1265822568#3" to="1221994726#1" type="hcmc_fleet"/>
    <trip id="134" depart="14668.00" from="1265822568#1" to="1200728225#3" type="hcmc_fleet"/>
    <trip id="135" depart="14670.00" from="1200728225#0" to="1200728225#3" type="hcmc_fleet"/>
    <trip id="136" depart="14672.00" from="1200728225#3" to="1200728225#3" type="hcmc_fleet"/>
    <trip id="137" depart="14674.00" from="1265822568#2" to="1163556238#1" type="hcmc_fleet"/>
    <trip id="138" depart="14676.00" from="1221994726#0" to="1221994726#2" type="hcmc_fleet"/>
    <trip id="139" depart="14678.00" from="1221994726#0" to="1267462159#2" type="hcmc_fleet"/>
    <trip id="140" depart="14680.00" from="1265822568#0" to="1265822568#2" type="hcmc_fleet"/>
    <trip id="141" depart="14682.00" from="1200728225#4" to="1163556238#1" type="hcmc_fleet"/>
    <trip id="142" depart="14684.00" from="1267462159#1" to="1267462159#3" type="hcmc_fleet"/>
    <trip id="143" depart="14686.00" from="1265822568#0" to="1265822568#1" type="hcmc_fleet"/>
    <trip id="144" depart="14688.00" from="1200728225#2" to="1200728225#2" type="hcmc_fleet"/>
    <trip id="145" depart="14690.00" from="1265822568#1" to="1163556238#1" type="hcmc_fleet"/>
    <trip id="146" depart="14692.00" from="1200728225#4" to="1221994726#2" type="hcmc_fleet"/>
    <trip id="147" depart="14694.00" from="1200728225#1" to="1221994726#0" type="hcmc_fleet"/>
    <trip id="148" depart="14696.00" from="1200728225#2" to="1200728225#3" type="hcmc_fleet"/>
    <trip id="149" depart="14698.00" from="1265822568#3" to="1200728225#4" type="hcmc_fleet"/>
    <trip id="150" depart="14700.00" from="1265822568#3" to="1267462159#1" type="hcmc_fleet"/>
    <trip id="151" depart="14702.00" from="-1163556238#1" to="1221994726#2" type="hcmc_fleet"/>
    <trip id="152" depart="14704.00" from="1422795954" to="1200728225#4" type="hcmc_fleet"/>
    <trip id="153" depart="14706.00" from="1265822568#1" to="1265822568#3" type="hcmc_fleet"/>
    <trip id="154" depart="14708.00" from="1265822568#1" to="1265822568#3" type="hcmc_fleet"/>
    <trip id="155" depart="14710.00" from="1422795954" to="1200728225#1" type="hcmc_fleet"/>
    <trip id="156" depart="14712.00" from="1265822568#0" to="1200728225#2" type="hcmc_fleet"/>
    <trip id="157" depart="14714.00" from="1265822568#2" to="1265822568#3" type="hcmc_fleet"/>
    <trip id="158" depart="14716.00" from="1267462159#1" to="1267462159#3" type="hcmc_fleet"/>
    <trip id="159" depart="14718.00" from="1200728225#0" to="1163556238#1" type="hcmc_fleet"/>
    <trip id="160" depart="14720.00" from="1422795954" to="1200728225#4" type="hcmc_fleet"/>
    <trip id="161" depart="14722.00" from="1200728225#0" to="1267462159#3" type="hcmc_fleet"/>
    <trip id="162" depart="14724.00" from="1265822568#3" to="1200728225#4" type="hcmc_fleet"/>
    <trip id="163" depart="14726.00" from="1267462159#1" to="1267462159#1" type="hcmc_fleet"/>
    <trip id="164" depart="14728.00" from="1200728225#0" to="1267462159#3" type="hcmc_fleet"/>
    <trip id="165" depart="14730.00" from="1265822568#1" to="1267462159#1" type="hcmc_fleet"/>
    <trip id="166" depart="14732.00" from="1265822568#2" to="1221994726#0" type="hcmc_fleet"/>
    <trip id="167" depart="14734.00" from="1265822568#3" to="1267462159#3" type="hcmc_fleet"/>
    <trip id="168" depart="14736.00" from="1200728225#3" to="1267462159#1" type="hcmc_fleet"/>
    <trip id="169" depart="14738.00" from="1265822568#0" to="1221994726#1" type="hcmc_fleet"/>
    <trip id="170" depart="14740.00" from="1200728225#3" to="1267462159#1" type="hcmc_fleet"/>
    <trip id="171" depart="14742.00" from="1200728225#4" to="1163556238#1" type="hcmc_fleet"/>
    <trip id="172" depart="14744.00" from="1200728225#4" to="1267462159#2" type="hcmc_fleet"/>
    <trip id="173" depart="14746.00" from="1265822568#2" to="1200728225#3" type="hcmc_fleet"/>
    <trip id="174" depart="14748.00" from="-1163556238#1" to="1267462159#3" type="hcmc_fleet"/>
    <trip id="175" depart="14750.00" from="1200728225#0" to="1200728225#2" type="hcmc_fleet"/>
    <trip id="176" depart="14752.00" from="1265822568#2" to="1200728225#3" type="hcmc_fleet"/>
    <trip id="177" depart="14754.00" from="1265822568#0" to="1221994726#1" type="hcmc_fleet"/>
    <trip id="178" depart="14756.00" from="1265822568#3" to="1200728225#3" type="hcmc_fleet"/>
    <trip id="179" depart="14758.00" from="1265822568#2" to="1200728225#3" type="hcmc_fleet"/>
    <trip id="180" depart="14760.00" from="1265822568#0" to="1265822568#3" type="hcmc_fleet"/>
    <trip id="181" depart="14762.00" from="1200728225#1" to="1200728225#2" type="hcmc_fleet"/>
    <trip id="182" depart="14764.00" from="1422795954" to="1221994726#1" type="hcmc_fleet"/>
    <trip id="183" depart="14766.00" from="1200728225#1" to="1200728225#2" type="hcmc_fleet"/>
    <trip id="184" depart="14768.00" from="1200728225#1" to="1163556238#1" type="hcmc_fleet"/>
    <trip id="185" depart="14770.00" from="1265822568#0" to="1200728225#3" type="hcmc_fleet"/>
    <trip id="186" depart="14772.00" from="1422795954" to="1221994726#2" type="hcmc_fleet"/>
    <trip id="187" depart="14774.00" from="1200728225#1" to="1163556238#1" type="hcmc_fleet"/>
    <trip id="188" depart="14776.00" from="1422795954" to="1221994726#1" type="hcmc_fleet"/>
    <trip id="189" depart="14778.00" from="1265822568#0" to="1200728225#3" type="hcmc_fleet"/>
    <trip id="190" depart="14780.00" from="1422795954" to="1200728225#0" type="hcmc_fleet"/>
    <trip id="191" depart="14782.00" from="1265822568#3" to="1200728225#2" type="hcmc_fleet"/>
    <trip id="192" depart="14784.00" from="1221994726#0" to="1267462159#1" type="hcmc_fleet"/>
    <trip id="193" depart="14786.00" from="1422795954" to="1200728225#3" type="hcmc_fleet"/>
    <trip id="194" depart="14788.00" from="1265822568#1" to="1265822568#1" type="hcmc_fleet"/>
    <trip id="195" depart="14790.00" from="1265822568#3" to="1267462159#3" type="hcmc_fleet"/>
    <trip id="196" depart="14792.00" from="1200728225#2" to="1200728225#2" type="hcmc_fleet"/>
    <trip id="197" depart="14794.00" from="-1163556238#1" to="1221994726#0" type="hcmc_fleet"/>
    <trip id="198" depart="14796.00" from="1265822568#0" to="1200728225#3" type="hcmc_fleet"/>
    <trip id="199" depart="14798.00" from="1265822568#2" to="1221994726#0" type="hcmc_fleet"/>
    <trip id="200" depart="14800.00" from="1265822568#2" to="1267462159#2" type="hcmc_fleet"/>
    <trip id="201" depart="14802.00" from="1265822568#1" to="1267462159#3" type="hcmc_fleet"/>
    <trip id="202" depart="14804.00" from="1221994726#0" to="1221994726#2" type="hcmc_fleet"/>
    <trip id="203" depart="14806.00" from="1265822568#1" to="1267462159#2" type="hcmc_fleet"/>
    <trip id="204" depart="14808.00" from="1200728225#1" to="1200728225#3" type="hcmc_fleet"/>
    <trip id="205" depart="14810.00" from="1265822568#3" to="1221994726#2" type="hcmc_fleet"/>
    <trip id="206" depart="14812.00" from="1265822568#2" to="1265822568#2" type="hcmc_fleet"/>
    <trip id="207" depart="14814.00" from="1422795954" to="1221994726#1" type="hcmc_fleet"/>
    <trip id="208" depart="14816.00" from="-1163556238#1" to="1221994726#0" type="hcmc_fleet"/>
    <trip id="209" depart="14818.00" from="1200728225#0" to="1267462159#3" type="hcmc_fleet"/>
    <trip id="210" depart="14820.00" from="1422795954" to="1267462159#3" type="hcmc_fleet"/>
    <trip id="211" depart="14822.00" from="1265822568#2" to="1200728225#3" type="hcmc_fleet"/>
    <trip id="212" depart="14824.00" from="1265822568#0" to="1265822568#1" type="hcmc_fleet"/>
    <trip id="213" depart="14826.00" from="1265822568#2" to="1267462159#1" type="hcmc_fleet"/>
    <trip id="214" depart="14828.00" from="1200728225#3" to="1267462159#3" type="hcmc_fleet"/>
    <trip id="215" depart="14830.00" from="1200728225#3" to="1267462159#3" type="hcmc_fleet"/>
    <trip id="216" depart="14832.00" from="1221994726#0" to="1221994726#1" type="hcmc_fleet"/>
    <trip id="217" depart="14834.00" from="1265822568#0" to="1221994726#0" type="hcmc_fleet"/>
    <trip id="218" depart="14836.00" from="1200728225#1" to="1200728225#4" type="hcmc_fleet"/>
    <trip id="219" depart="14838.00" from="1265822568#3" to="1200728225#2" type="hcmc_fleet"/>
    <trip id="220" depart="14840.00" from="1265822568#0" to="1267462159#2" type="hcmc_fleet"/>
    <trip id="221" depart="14842.00" from="1200728225#0" to="1267462159#3" type="hcmc_fleet"/>
    <trip id="222" depart="14844.00" from="1265822568#1" to="1200728225#2" type="hcmc_fleet"/>
    <trip id="223" depart="14846.00" from="1200728225#1" to="1221994726#2" type="hcmc_fleet"/>
    <trip id="224" depart="14848.00" from="1422795954" to="1267462159#2" type="hcmc_fleet"/>
    <trip id="225" depart="14850.00" from="1265822568#2" to="1221994726#1" type="hcmc_fleet"/>
    <trip id="226" depart="14852.00" from="1200728225#3" to="1267462159#1" type="hcmc_fleet"/>
    <trip id="227" depart="14854.00" from="1422795954" to="1200728225#2" type="hcmc_fleet"/>
    <trip id="228" depart="14856.00" from="1265822568#0" to="1200728225#4" type="hcmc_fleet"/>
    <trip id="229" depart="14858.00" from="1221994726#0" to="1267462159#3" type="hcmc_fleet"/>
    <trip id="230" depart="14860.00" from="1200728225#3" to="1200728225#3" type="hcmc_fleet"/>
    <trip id="231" depart="14862.00" from="1265822568#0" to="1267462159#3" type="hcmc_fleet"/>
    <trip id="232" depart="14864.00" from="1265822568#0" to="1200728225#4" type="hcmc_fleet"/>
    <trip id="233" depart="14866.00" from="1265822568#0" to="1221994726#2" type="hcmc_fleet"/>
    <trip id="234" depart="14868.00" from="1265822568#0" to="1200728225#2" type="hcmc_fleet"/>
    <trip id="235" depart="14870.00" from="1265822568#3" to="1163556238#1" type="hcmc_fleet"/>
    <trip id="236" depart="14872.00" from="1265822568#1" to="1267462159#1" type="hcmc_fleet"/>
    <trip id="237" depart="14874.00" from="1422795954" to="1221994726#1" type="hcmc_fleet"/>
    <trip id="238" depart="14876.00" from="-1163556238#1" to="1221994726#1" type="hcmc_fleet"/>
    <trip id="239" depart="14878.00" from="1265822568#0" to="1267462159#2" type="hcmc_fleet"/>
    <trip id="240" depart="14880.00" from="1265822568#2" to="1221994726#0" type="hcmc_fleet"/>
    <trip id="241" depart="14882.00" from="1265822568#1" to="1267462159#1" type="hcmc_fleet"/>
    <trip id="242" depart="14884.00" from="1267462159#1" to="1267462159#1" type="hcmc_fleet"/>
    <trip id="243" depart="14886.00" from="1265822568#2" to="1265822568#3" type="hcmc_fleet"/>
    <trip id="244" depart="14888.00" from="1267462159#2" to="1267462159#3" type="hcmc_fleet"/>
    <trip id="245" depart="14890.00" from="1265822568#3" to="1221994726#0" type="hcmc_fleet"/>
    <trip id="246" depart="14892.00" from="1265822568#2" to="1267462159#2" type="hcmc_fleet"/>
    <trip id="247" depart="14894.00" from="1200728225#3" to="1200728225#4" type="hcmc_fleet"/>
    <trip id="248" depart="14896.00" from="1200728225#1" to="1221994726#1" type="hcmc_fleet"/>
    <trip id="249" depart="14898.00" from="1265822568#0" to="1265822568#3" type="hcmc_fleet"/>
    <trip id="250" depart="14900.00" from="1200728225#2" to="1267462159#2" type="hcmc_fleet"/>
    <trip id="251" depart="14902.00" from="1200728225#1" to="1221994726#0" type="hcmc_fleet"/>
    <trip id="252" depart="14904.00" from="1200728225#2" to="1200728225#2" type="hcmc_fleet"/>
    <trip id="253" depart="14906.00" from="-1163556238#1" to="1267462159#1" type="hcmc_fleet"/>
    <trip id="254" depart="14908.00" from="1200728225#1" to="1221994726#0" type="hcmc_fleet"/>
    <trip id="255" depart="14910.00" from="1200728225#4" to="1221994726#2" type="hcmc_fleet"/>
    <trip id="256" depart="14912.00" from="1265822568#1" to="1221994726#0" type="hcmc_fleet"/>
    <trip id="257" depart="14914.00" from="1200728225#2" to="1267462159#1" type="hcmc_fleet"/>
    <trip id="258" depart="14916.00" from="1200728225#1" to="1200728225#4" type="hcmc_fleet"/>
    <trip id="259" depart="14918.00" from="1265822568#0" to="1221994726#2" type="hcmc_fleet"/>
    <trip id="260" depart="14920.00" from="1422795954" to="1200728225#3" type="hcmc_fleet"/>
    <trip id="261" depart="14922.00" from="1200728225#3" to="1221994726#2" type="hcmc_fleet"/>
    <trip id="262" depart="14924.00" from="1265822568#2" to="1265822568#3" type="hcmc_fleet"/>
    <trip id="263" depart="14926.00" from="1265822568#1" to="1200728225#4" type="hcmc_fleet"/>
    <trip id="264" depart="14928.00" from="1265822568#1" to="1265822568#1" type="hcmc_fleet"/>
    <trip id="265" depart="14930.00" from="1265822568#2" to="1265822568#2" type="hcmc_fleet"/>
    <trip id="266" depart="14932.00" from="1265822568#1" to="1267462159#1" type="hcmc_fleet"/>
    <trip id="267" depart="14934.00" from="1265822568#1" to="1267462159#2" type="hcmc_fleet"/>
    <trip id="268" depart="14936.00" from="1265822568#1" to="1200728225#3" type="hcmc_fleet"/>
    <trip id="269" depart="14938.00" from="1221994726#0" to="1221994726#2" type="hcmc_fleet"/>
    <trip id="270" depart="14940.00" from="1265822568#0" to="1267462159#3" type="hcmc_fleet"/>
    <trip id="271" depart="14942.00" from="1422795954" to="1200728225#1" type="hcmc_fleet"/>
    <trip id="272" depart="14944.00" from="1422795954" to="1267462159#1" type="hcmc_fleet"/>
    <trip id="273" depart="14946.00" from="1265822568#2" to="1267462159#3" type="hcmc_fleet"/>
    <trip id="274" depart="14948.00" from="1422795954" to="1267462159#1" type="hcmc_fleet"/>
    <trip id="275" depart="14950.00" from="-1163556238#1" to="1221994726#2" type="hcmc_fleet"/>
    <trip id="276" depart="14952.00" from="1265822568#2" to="1221994726#2" type="hcmc_fleet"/>
    <trip id="277" depart="14954.00" from="1267462159#1" to="1267462159#3" type="hcmc_fleet"/>
    <trip id="278" depart="14956.00" from="1200728225#0" to="1200728225#2" type="hcmc_fleet"/>
    <trip id="279" depart="14958.00" from="-1163556238#1" to="1267462159#2" type="hcmc_fleet"/>
    <trip id="280" depart="14960.00" from="1265822568#0" to="1267462159#2" type="hcmc_fleet"/>
    <trip id="281" depart="14962.00" from="1200728225#2" to="1163556238#1" type="hcmc_fleet"/>
    <trip id="282" depart="14964.00" from="1267462159#1" to="1267462159#2" type="hcmc_fleet"/>
    <trip id="283" depart="14966.00" from="1200728225#3" to="1221994726#0" type="hcmc_fleet"/>
    <trip id="284" depart="14968.00" from="1200728225#1" to="1267462159#3" type="hcmc_fleet"/>
    <trip id="285" depart="14970.00" from="1200728225#3" to="1221994726#1" type="hcmc_fleet"/>
    <trip id="286" depart="14972.00" from="1200728225#0" to="1267462159#2" type="hcmc_fleet"/>
    <trip id="287" depart="14974.00" from="1200728225#1" to="1221994726#0" type="hcmc_fleet"/>
    <trip id="288" depart="14976.00" from="1265822568#2" to="1265822568#3" type="hcmc_fleet"/>
    <trip id="289" depart="14978.00" from="1422795954" to="1221994726#0" type="hcmc_fleet"/>
    <trip id="290" depart="14980.00" from="1422795954" to="1163556238#1" type="hcmc_fleet"/>
    <trip id="291" depart="14982.00" from="1200728225#4" to="1221994726#0" type="hcmc_fleet"/>
    <trip id="292" depart="14984.00" from="1422795954" to="1267462159#1" type="hcmc_fleet"/>
    <trip id="293" depart="14986.00" from="1265822568#0" to="1267462159#3" type="hcmc_fleet"/>
    <trip id="294" depart="14988.00" from="1200728225#4" to="1200728225#4" type="hcmc_fleet"/>
    <trip id="295" depart="14990.00" from="1265822568#1" to="1265822568#1" type="hcmc_fleet"/>
    <trip id="296" depart="14992.00" from="1265822568#0" to="1163556238#1" type="hcmc_fleet"/>
    <trip id="297" depart="14994.00" from="1265822568#3" to="1200728225#2" type="hcmc_fleet"/>
    <trip id="298" depart="14996.00" from="1200728225#0" to="1221994726#2" type="hcmc_fleet"/>
    <trip id="299" depart="14998.00" from="1200728225#2" to="1200728225#2" type="hcmc_fleet"/>
    <trip id="300" depart="15000.00" from="1200728225#1" to="1267462159#2" type="hcmc_fleet"/>
    <trip id="301" depart="15002.00" from="-1163556238#1" to="1267462159#1" type="hcmc_fleet"/>
    <trip id="302" depart="15004.00" from="1265822568#1" to="1163556238#1" type="hcmc_fleet"/>
    <trip id="303" depart="15006.00" from="1200728225#2" to="1200728225#3" type="hcmc_fleet"/>
    <trip id="304" depart="15008.00" from="1200728225#1" to="1163556238#1" type="hcmc_fleet"/>
    <trip id="305" depart="15010.00" from="1265822568#3" to="1221994726#1" type="hcmc_fleet"/>
    <trip id="306" depart="15012.00" from="1265822568#3" to="1221994726#1" type="hcmc_fleet"/>
    <trip id="307" depart="15014.00" from="1265822568#3" to="1221994726#1" type="hcmc_fleet"/>
    <trip id="308" depart="15016.00" from="1200728225#0" to="1221994726#1" type="hcmc_fleet"/>
    <trip id="309" depart="15018.00" from="1422795954" to="1163556238#1" type="hcmc_fleet"/>