<?xml version="1.0" encoding="UTF-8"?>

<!-- generated on 2025-11-04 20:07:26.576218 by randomTrips.py v1_24_0+0000-b72eb3fabc8
<configuration>
    <net-file value="D:\AfterGradEx\de_traffic_control\map.net.xml"/>
    <additional-files value="D:\AfterGradEx\de_traffic_control\hcmc_vtypes.xml"/>
    <output-trip-file value="D:\AfterGradEx\de_traffic_control\trips_rush_6.trips.xml"/>
    <trip-attributes value="type=&quot;hcmc_fleet&quot;"/>
    <begin value="10800.0"/>
    <end value="12600.0"/>
    <period value="1.4"/>
</configuration>
-->

<routes xmlns:xsi="http://www.w3.org/2001/XMLSchema-instance" xsi:noNamespaceSchemaLocation="http://sumo.dlr.de/xsd/routes_file.xsd">
    <trip id="0" depart="10800.00" from="1265822568#1" to="1163556238#1" type="hcmc_fleet"/>
    <trip id="1" depart="10801.40" from="1200728225#2" to="1221994726#1" type="hcmc_fleet"/>
    <trip id="2" depart="10802.80" from="1265822568#1" to="1221994726#2" type="hcmc_fleet"/>
    <trip id="3" depart="10804.20" from="1200728225#2" to="1221994726#2" type="hcmc_fleet"/>
    <trip id="4" depart="10805.60" from="1422795954" to="1200728225#4" type="hcmc_fleet"/>
    <trip id="5" depart="10807.00" from="1200728225#0" to="1200728225#0" type="hcmc_fleet"/>
    <trip id="6" depart="10808.40" from="1265822568#0" to="1267462159#3" type="hcmc_fleet"/>
    <trip id="7" depart="10809.80" from="1200728225#4" to="1221994726#2" type="hcmc_fleet"/>
    <trip id="8" depart="10811.20" from="1265822568#2" to="1163556238#1" type="hcmc_fleet"/>
    <trip id="9" depart="10812.60" from="1200728225#2" to="1200728225#3" type="hcmc_fleet"/>
    <trip id="10" depart="10814.00" from="1200728225#0" to="1200728225#2" type="hcmc_fleet"/>
    <trip id="11" depart="10815.40" from="1200728225#0" to="1200728225#3" type="hcmc_fleet"/>
    <trip id="12" depart="10816.80" from="1265822568#1" to="1200728225#4" type="hcmc_fleet"/>
    <trip id="13" depart="10818.20" from="1200728225#3" to="1267462159#3" type="hcmc_fleet"/>
    <trip id="14" depart="10819.60" from="1265822568#1" to="1265822568#1" type="hcmc_fleet"/>
    <trip id="15" depart="10821.00" from="1200728225#1" to="1200728225#4" type="hcmc_fleet"/>
    <trip id="16" depart="10822.40" from="1265822568#0" to="1265822568#2" type="hcmc_fleet"/>
    <trip id="17" depart="10823.80" from="1200728225#2" to="1163556238#1" type="hcmc_fleet"/>
    <trip id="18" depart="10825.20" from="1200728225#3" to="1200728225#3" type="hcmc_fleet"/>
    <trip id="19" depart="10826.60" from="1200728225#2" to="1267462159#3" type="hcmc_fleet"/>
    <trip id="20" depart="10828.00" from="1265822568#1" to="1200728225#4" type="hcmc_fleet"/>
    <trip id="21" depart="10829.40" from="1200728225#2" to="1200728225#2" type="hcmc_fleet"/>
    <trip id="22" depart="10830.80" from="1265822568#0" to="1200728225#2" type="hcmc_fleet"/>
    <trip id="23" depart="10832.20" from="1265822568#0" to="1267462159#2" type="hcmc_fleet"/>
    <trip id="24" depart="10833.60" from="1422795954" to="1221994726#1" type="hcmc_fleet"/>
    <trip id="25" depart="10835.00" from="1200728225#0" to="1163556238#1" type="hcmc_fleet"/>
    <trip id="26" depart="10836.40" from="1265822568#3" to="1221994726#0" type="hcmc_fleet"/>
    <trip id="27" depart="10837.80" from="1422795954" to="1221994726#1" type="hcmc_fleet"/>
    <trip id="28" depart="10839.20" from="1422795954" to="1267462159#1" type="hcmc_fleet"/>
    <trip id="29" depart="10840.60" from="1265822568#2" to="1221994726#2" type="hcmc_fleet"/>
    <trip id="30" depart="10842.00" from="1200728225#0" to="1221994726#0" type="hcmc_fleet"/>
    <trip id="31" depart="10843.40" from="1221994726#0" to="1267462159#3" type="hcmc_fleet"/>
    <trip id="32" depart="10844.80" from="1267462159#2" to="1267462159#2" type="hcmc_fleet"/>
    <trip id="33" depart="10846.20" from="1265822568#3" to="1221994726#2" type="hcmc_fleet"/>
    <trip id="34" depart="10847.60" from="1265822568#3" to="1221994726#1" type="hcmc_fleet"/>
    <trip id="35" depart="10849.00" from="-1163556238#1" to="1267462159#2" type="hcmc_fleet"/>
    <trip id="36" depart="10850.40" from="1200728225#3" to="1163556238#1" type="hcmc_fleet"/>
    <trip id="37" depart="10851.80" from="1267462159#2" to="1267462159#3" type="hcmc_fleet"/>
    <trip id="38" depart="10853.20" from="1200728225#0" to="1221994726#1" type="hcmc_fleet"/>
    <trip id="39" depart="10854.60" from="1221994726#1" to="1221994726#2" type="hcmc_fleet"/>
    <trip id="40" depart="10856.00" from="1200728225#2" to="1267462159#2" type="hcmc_fleet"/>
    <trip id="41" depart="10857.40" from="1265822568#0" to="1265822568#2" type="hcmc_fleet"/>
    <trip id="42" depart="10858.80" from="1200728225#2" to="1200728225#3" type="hcmc_fleet"/>
    <trip id="43" depart="10860.20" from="1221994726#0" to="1221994726#1" type="hcmc_fleet"/>
    <trip id="44" depart="10861.60" from="1200728225#0" to="1200728225#2" type="hcmc_fleet"/>
    <trip id="45" depart="10863.00" from="1200728225#4" to="1221994726#2" type="hcmc_fleet"/>
    <trip id="46" depart="10864.40" from="1200728225#2" to="1200728225#2" type="hcmc_fleet"/>
    <trip id="47" depart="10865.80" from="1200728225#2" to="1267462159#2" type="hcmc_fleet"/>
    <trip id="48" depart="10867.20" from="1422795954" to="1221994726#2" type="hcmc_fleet"/>
    <trip id="49" depart="10868.60" from="1200728225#0" to="1221994726#0" type="hcmc_fleet"/>
    <trip id="50" depart="10870.00" from="1221994726#0" to="1221994726#1" type="hcmc_fleet"/>
    <trip id="51" depart="10871.40" from="1265822568#2" to="1265822568#2" type="hcmc_fleet"/>
    <trip id="52" depart="10872.80" from="1422795954" to="1200728225#0" type="hcmc_fleet"/>
    <trip id="53" depart="10874.20" from="1200728225#1" to="1221994726#0" type="hcmc_fleet"/>
    <trip id="54" depart="10875.60" from="1200728225#2" to="1267462159#2" type="hcmc_fleet"/>
    <trip id="55" depart="10877.00" from="1221994726#0" to="1267462159#1" type="hcmc_fleet"/>
    <trip id="56" depart="10878.40" from="1265822568#0" to="1163556238#1" type="hcmc_fleet"/>
    <trip id="57" depart="10879.80" from="1422795954" to="1267462159#1" type="hcmc_fleet"/>
    <trip id="58" depart="10881.20" from="1422795954" to="1267462159#2" type="hcmc_fleet"/>
    <trip id="59" depart="10882.60" from="1200728225#4" to="1267462159#3" type="hcmc_fleet"/>
    <trip id="60" depart="10884.00" from="1221994726#0" to="1221994726#0" type="hcmc_fleet"/>
    <trip id="61" depart="10885.40" from="1422795954" to="1267462159#3" type="hcmc_fleet"/>
    <trip id="62" depart="10886.80" from="1265822568#0" to="1265822568#2" type="hcmc_fleet"/>
    <trip id="63" depart="10888.20" from="1200728225#1" to="1200728225#3" type="hcmc_fleet"/>
    <trip id="64" depart="10889.60" from="1422795954" to="1221994726#2" type="hcmc_fleet"/>
    <trip id="65" depart="10891.00" from="1265822568#0" to="1265822568#3" type="hcmc_fleet"/>
    <trip id="66" depart="10892.40" from="-1163556238#1" to="1221994726#2" type="hcmc_fleet"/>
    <trip id="67" depart="10893.80" from="1200728225#1" to="1267462159#3" type="hcmc_fleet"/>
    <trip id="68" depart="10895.20" from="1200728225#0" to="1200728225#1" type="hcmc_fleet"/>
    <trip id="69" depart="10896.60" from="1265822568#0" to="1265822568#2" type="hcmc_fleet"/>
    <trip id="70" depart="10898.00" from="1265822568#0" to="1265822568#1" type="hcmc_fleet"/>
    <trip id="71" depart="10899.40" from="1221994726#0" to="1221994726#2" type="hcmc_fleet"/>
    <trip id="72" depart="10900.80" from="1200728225#2" to="1200728225#4" type="hcmc_fleet"/>
    <trip id="73" depart="10902.20" from="1265822568#2" to="1200728225#3" type="hcmc_fleet"/>
    <trip id="74" depart="10903.60" from="1200728225#0" to="1221994726#0" type="hcmc_fleet"/>
    <trip id="75" depart="10905.00" from="1422795954" to="1267462159#3" type="hcmc_fleet"/>
    <trip id="76" depart="10906.40" from="1200728225#0" to="1200728225#2" type="hcmc_fleet"/>
    <trip id="77" depart="10907.80" from="1200728225#2" to="1267462159#2" type="hcmc_fleet"/>
    <trip id="78" depart="10909.20" from="1267462159#2" to="1267462159#2" type="hcmc_fleet"/>
    <trip id="79" depart="10910.60" from="1265822568#1" to="1267462159#3" type="hcmc_fleet"/>
    <trip id="80" depart="10912.00" from="1265822568#1" to="1163556238#1" type="hcmc_fleet"/>
    <trip id="81" depart="10913.40" from="1265822568#1" to="1267462159#3" type="hcmc_fleet"/>
    <trip id="82" depart="10914.80" from="1200728225#0" to="1221994726#2" type="hcmc_fleet"/>
    <trip id="83" depart="10916.20" from="1265822568#2" to="1200728225#2" type="hcmc_fleet"/>
    <trip id="84" depart="10917.60" from="1265822568#1" to="1200728225#2" type="hcmc_fleet"/>
    <trip id="85" depart="10919.00" from="1265822568#1" to="1200728225#2" type="hcmc_fleet"/>
    <trip id="86" depart="10920.40" from="1265822568#3" to="1221994726#2" type="hcmc_fleet"/>
    <trip id="87" depart="10921.80" from="1200728225#0" to="1267462159#2" type="hcmc_fleet"/>
    <trip id="88" depart="10923.20" from="1200728225#3" to="1267462159#2" type="hcmc_fleet"/>
    <trip id="89" depart="10924.60" from="1265822568#3" to="1267462159#1" type="hcmc_fleet"/>
    <trip id="90" depart="10926.00" from="1265822568#3" to="1267462159#2" type="hcmc_fleet"/>
    <trip id="91" depart="10927.40" from="1200728225#1" to="1267462159#2" type="hcmc_fleet"/>
    <trip id="92" depart="10928.80" from="1267462159#1" to="1267462159#3" type="hcmc_fleet"/>
    <trip id="93" depart="10930.20" from="1267462159#1" to="1267462159#2" type="hcmc_fleet"/>
    <trip id="94" depart="10931.60" from="1200728225#3" to="1267462159#2" type="hcmc_fleet"/>
    <trip id="95" depart="10933.00" from="1267462159#1" to="1267462159#1" type="hcmc_fleet"/>
    <trip id="96" depart="10934.40" from="1200728225#2" to="1267462159#1" type="hcmc_fleet"/>
    <trip id="97" depart="10935.80" from="1265822568#3" to="1200728225#2" type="hcmc_fleet"/>
    <trip id="98" depart="10937.20" from="1200728225#3" to="1267462159#1" type="hcmc_fleet"/>
    <trip id="99" depart="10938.60" from="1422795954" to="1200728225#3" type="hcmc_fleet"/>
    <trip id="100" depart="10940.00" from="1265822568#1" to="1200728225#4" type="hcmc_fleet"/>
    <trip id="101" depart="10941.40" from="1422795954" to="1221994726#2" type="hcmc_fleet"/>
    <trip id="102" depart="10942.80" from="1422795954" to="1200728225#0" type="hcmc_fleet"/>
    <trip id="103" depart="10944.20" from="1422795954" to="1200728225#1" type="hcmc_fleet"/>
    <trip id="104" depart="10945.60" from="1422795954" to="1200728225#2" type="hcmc_fleet"/>
    <trip id="105" depart="10947.00" from="1200728225#0" to="1221994726#0" type="hcmc_fleet"/>
    <trip id="106" depart="10948.40" from="1265822568#2" to="1200728225#3" type="hcmc_fleet"/>
    <trip id="107" depart="10949.80" from="1265822568#1" to="1221994726#1" type="hcmc_fleet"/>
    <trip id="108" depart="10951.20" from="1200728225#4" to="1221994726#2" type="hcmc_fleet"/>
    <trip id="109" depart="10952.60" from="-1163556238#1" to="1267462159#2" type="hcmc_fleet"/>
    <trip id="110" depart="10954.00" from="1265822568#0" to="1265822568#2" type="hcmc_fleet"/>
    <trip id="111" depart="10955.40" from="1265822568#1" to="1200728225#3" type="hcmc_fleet"/>
    <trip id="112" depart="10956.80" from="1200728225#3" to="1267462159#1" type="hcmc_fleet"/>
    <trip id="113" depart="10958.20" from="1265822568#2" to="1200728225#3" type="hcmc_fleet"/>
    <trip id="114" depart="10959.60" from="1200728225#3" to="1221994726#0" type="hcmc_fleet"/>
    <trip id="115" depart="10961.00" from="1200728225#0" to="1221994726#0" type="hcmc_fleet"/>
    <trip id="116" depart="10962.40" from="1200728225#3" to="1221994726#2" type="hcmc_fleet"/>
    <trip id="117" depart="10963.80" from="1221994726#0" to="1221994726#2" type="hcmc_fleet"/>
    <trip id="118" depart="10965.20" from="1265822568#1" to="1221994726#0" type="hcmc_fleet"/>
    <trip id="119" depart="10966.60" from="1200728225#0" to="1221994726#1" type="hcmc_fleet"/>
    <trip id="120" depart="10968.00" from="1265822568#1" to="1200728225#4" type="hcmc_fleet"/>
    <trip id="121" depart="10969.40" from="1265822568#2" to="1200728225#2" type="hcmc_fleet"/>
    <trip id="122" depart="10970.80" from="1200728225#1" to="1163556238#1" type="hcmc_fleet"/>
    <trip id="123" depart="10972.20" from="1200728225#2" to="1221994726#1" type="hcmc_fleet"/>
    <trip id="124" depart="10973.60" from="1265822568#1" to="1163556238#1" type="hcmc_fleet"/>
    <trip id="125" depart="10975.00" from="1265822568#3" to="1265822568#3" type="hcmc_fleet"/>
    <trip id="126" depart="10976.40" from="1200728225#0" to="1221994726#0" type="hcmc_fleet"/>
    <trip id="127" depart="10977.80" from="1200728225#1" to="1267462159#3" type="hcmc_fleet"/>
    <trip id="128" depart="10979.20" from="1200728225#2" to="1267462159#1" type="hcmc_fleet"/>
    <trip id="129" depart="10980.60" from="1221994726#0" to="1267462159#1" type="hcmc_fleet"/>
    <trip id="130" depart="10982.00" from="1265822568#2" to="1267462159#3" type="hcmc_fleet"/>
    <trip id="131" depart="10983.40" from="1265822568#0" to="1267462159#3" type="hcmc_fleet"/>
    <trip id="132" depart="10984.80" from="1265822568#2" to="1221994726#1" type="hcmc_fleet"/>
    <trip id="133" depart="10986.20" from="1265822568#3" to="1221994726#1" type="hcmc_fleet"/>
    <trip id="134" depart="10987.60" from="1265822568#1" to="1200728225#3" type="hcmc_fleet"/>
    <trip id="135" depart="10989.00" from="1200728225#0" to="1200728225#3" type="hcmc_fleet"/>
    <trip id="136" depart="10990.40" from="1200728225#3" to="1200728225#3" type="hcmc_fleet"/>
    <trip id="137" depart="10991.80" from="1265822568#2" to="1163556238#1" type="hcmc_fleet"/>
    <trip id="138" depart="10993.20" from="1221994726#0" to="1221994726#2" type="hcmc_fleet"/>
    <trip id="139" depart="10994.60" from="1221994726#0" to="1267462159#2" type="hcmc_fleet"/>
    <trip id="140" depart="10996.00" from="1265822568#0" to="1265822568#2" type="hcmc_fleet"/>
    <trip id="141" depart="10997.40" from="1200728225#4" to="1163556238#1" type="hcmc_fleet"/>
    <trip id="142" depart="10998.80" from="1267462159#1" to="1267462159#3" type="hcmc_fleet"/>
    <trip id="143" depart="11000.20" from="1265822568#0" to="1265822568#1" type="hcmc_fleet"/>
    <trip id="144" depart="11001.60" from="1200728225#2" to="1200728225#2" type="hcmc_fleet"/>
    <trip id="145" depart="11003.00" from="1265822568#1" to="1163556238#1" type="hcmc_fleet"/>
    <trip id="146" depart="11004.40" from="1200728225#4" to="1221994726#2" type="hcmc_fleet"/>
    <trip id="147" depart="11005.80" from="1200728225#1" to="1221994726#0" type="hcmc_fleet"/>
    <trip id="148" depart="11007.20" from="1200728225#2" to="1200728225#3" type="hcmc_fleet"/>
    <trip id="149" depart="11008.60" from="1265822568#3" to="1200728225#4" type="hcmc_fleet"/>
    <trip id="150" depart="11010.00" from="1265822568#3" to="1267462159#1" type="hcmc_fleet"/>
    <trip id="151" depart="11011.40" from="-1163556238#1" to="1221994726#2" type="hcmc_fleet"/>
    <trip id="152" depart="11012.80" from="1422795954" to="1200728225#4" type="hcmc_fleet"/>
    <trip id="153" depart="11014.20" from="1265822568#1" to="1265822568#3" type="hcmc_fleet"/>
    <trip id="154" depart="11015.60" from="1265822568#1" to="1265822568#3" type="hcmc_fleet"/>
    <trip id="155" depart="11017.00" from="1422795954" to="1200728225#1" type="hcmc_fleet"/>
    <trip id="156" depart="11018.40" from="1265822568#0" to="1200728225#2" type="hcmc_fleet"/>
    <trip id="157" depart="11019.80" from="1265822568#2" to="1265822568#3" type="hcmc_fleet"/>
    <trip id="158" depart="11021.20" from="1267462159#1" to="1267462159#3" type="hcmc_fleet"/>
    <trip id="159" depart="11022.60" from="1200728225#0" to="1163556238#1" type="hcmc_fleet"/>
    <trip id="160" depart="11024.00" from="1422795954" to="1200728225#4" type="hcmc_fleet"/>
    <trip id="161" depart="11025.40" from="1200728225#0" to="1267462159#3" type="hcmc_fleet"/>
    <trip id="162" depart="11026.80" from="1265822568#3" to="1200728225#4" type="hcmc_fleet"/>
    <trip id="163" depart="11028.20" from="1267462159#1" to="1267462159#1" type="hcmc_fleet"/>
    <trip id="164" depart="11029.60" from="1200728225#0" to="1267462159#3" type="hcmc_fleet"/>
    <trip id="165" depart="11031.00" from="1265822568#1" to="1267462159#1" type="hcmc_fleet"/>
    <trip id="166" depart="11032.40" from="1265822568#2" to="1221994726#0" type="hcmc_fleet"/>
    <trip id="167" depart="11033.80" from="1265822568#3" to="1267462159#3" type="hcmc_fleet"/>
    <trip id="168" depart="11035.20" from="1200728225#3" to="1267462159#1" type="hcmc_fleet"/>
    <trip id="169" depart="11036.60" from="1265822568#0" to="1221994726#1" type="hcmc_fleet"/>
    <trip id="170" depart="11038.00" from="1200728225#3" to="1267462159#1" type="hcmc_fleet"/>
    <trip id="171" depart="11039.40" from="1200728225#4" to="1163556238#1" type="hcmc_fleet"/>
    <trip id="172" depart="11040.80" from="1200728225#4" to="1267462159#2" type="hcmc_fleet"/>
    <trip id="173" depart="11042.20" from="1265822568#2" to="1200728225#3" type="hcmc_fleet"/>
    <trip id="174" depart="11043.60" from="-1163556238#1" to="1267462159#3" type="hcmc_fleet"/>
    <trip id="175" depart="11045.00" from="1200728225#0" to="1200728225#2" type="hcmc_fleet"/>
    <trip id="176" depart="11046.40" from="1265822568#2" to="1200728225#3" type="hcmc_fleet"/>
    <trip id="177" depart="11047.80" from="1265822568#0" to="1221994726#1" type="hcmc_fleet"/>
    <trip id="178" depart="11049.20" from="1265822568#3" to="1200728225#3" type="hcmc_fleet"/>
    <trip id="179" depart="11050.60" from="1265822568#2" to="1200728225#3" type="hcmc_fleet"/>
    <trip id="180" depart="11052.00" from="1265822568#0" to="1265822568#3" type="hcmc_fleet"/>
    <trip id="181" depart="11053.40" from="1200728225#1" to="1200728225#2" type="hcmc_fleet"/>
    <trip id="182" depart="11054.80" from="1422795954" to="1221994726#1" type="hcmc_fleet"/>
    <trip id="183" depart="11056.20" from="1200728225#1" to="1200728225#2" type="hcmc_fleet"/>
    <trip id="184" depart="11057.60" from="1200728225#1" to="1163556238#1" type="hcmc_fleet"/>
    <trip id="185" depart="11059.00" from="1265822568#0" to="1200728225#3" type="hcmc_fleet"/>
    <trip id="186" depart="11060.40" from="1422795954" to="1221994726#2" type="hcmc_fleet"/>
    <trip id="187" depart="11061.80" from="1200728225#1" to="1163556238#1" type="hcmc_fleet"/>
    <trip id="188" depart="11063.20" from="1422795954" to="1221994726#1" type="hcmc_fleet"/>
    <trip id="189" depart="11064.60" from="1265822568#0" to="1200728225#3" type="hcmc_fleet"/>
    <trip id="190" depart="11066.00" from="1422795954" to="1200728225#0" type="hcmc_fleet"/>
    <trip id="191" depart="11067.40" from="1265822568#3" to="1200728225#2" type="hcmc_fleet"/>
    <trip id="192" depart="11068.80" from="1221994726#0" to="1267462159#1" type="hcmc_fleet"/>
    <trip id="193" depart="11070.20" from="1422795954" to="1200728225#3" type="hcmc_fleet"/>
    <trip id="194" depart="11071.60" from="1265822568#1" to="1265822568#1" type="hcmc_fleet"/>
    <trip id="195" depart="11073.00" from="1265822568#3" to="1267462159#3" type="hcmc_fleet"/>
    <trip id="196" depart="11074.40" from="1200728225#2" to="1200728225#2" type="hcmc_fleet"/>
    <trip id="197" depart="11075.80" from="-1163556238#1" to="1221994726#0" type="hcmc_fleet"/>
    <trip id="198" depart="11077.20" from="1265822568#0" to="1200728225#3" type="hcmc_fleet"/>
    <trip id="199" depart="11078.60" from="1265822568#2" to="1221994726#0" type="hcmc_fleet"/>
    <trip id="200" depart="11080.00" from="1265822568#2" to="1267462159#2" type="hcmc_fleet"/>
    <trip id="201" depart="11081.40" from="1265822568#1" to="1267462159#3" type="hcmc_fleet"/>
    <trip id="202" depart="11082.80" from="1221994726#0" to="1221994726#2" type="hcmc_fleet"/>
    <trip id="203" depart="11084.20" from="1265822568#1" to="1267462159#2" type="hcmc_fleet"/>
    <trip id="204" depart="11085.60" from="1200728225#1" to="1200728225#3" type="hcmc_fleet"/>
    <trip id="205" depart="11087.00" from="1265822568#3" to="1221994726#2" type="hcmc_fleet"/>
    <trip id="206" depart="11088.40" from="1265822568#2" to="1265822568#2" type="hcmc_fleet"/>
    <trip id="207" depart="11089.80" from="1422795954" to="1221994726#1" type="hcmc_fleet"/>
    <trip id="208" depart="11091.20" from="-1163556238#1" to="1221994726#0" type="hcmc_fleet"/>
    <trip id="209" depart="11092.60" from="1200728225#0" to="1267462159#3" type="hcmc_fleet"/>
    <trip id="210" depart="11094.00" from="1422795954" to="1267462159#3" type="hcmc_fleet"/>
    <trip id="211" depart="11095.40" from="1265822568#2" to="1200728225#3" type="hcmc_fleet"/>
    <trip id="212" depart="11096.80" from="1265822568#0" to="1265822568#1" type="hcmc_fleet"/>
    <trip id="213" depart="11098.20" from="1265822568#2" to="1267462159#1" type="hcmc_fleet"/>
    <trip id="214" depart="11099.60" from="1200728225#3" to="1267462159#3" type="hcmc_fleet"/>
    <trip id="215" depart="11101.00" from="1200728225#3" to="1267462159#3" type="hcmc_fleet"/>
    <trip id="216" depart="11102.40" from="1221994726#0" to="1221994726#1" type="hcmc_fleet"/>
    <trip id="217" depart="11103.80" from="1265822568#0" to="1221994726#0" type="hcmc_fleet"/>
    <trip id="218" depart="11105.20" from="1200728225#1" to="1200728225#4" type="hcmc_fleet"/>
    <trip id="219" depart="11106.60" from="1265822568#3" to="1200728225#2" type="hcmc_fleet"/>
    <trip id="220" depart="11108.00" from="1265822568#0" to="1267462159#2" type="hcmc_fleet"/>
    <trip id="221" depart="11109.40" from="1200728225#0" to="1267462159#3" type="hcmc_fleet"/>
    <trip id="222" depart="11110.80" from="1265822568#1" to="1200728225#2" type="hcmc_fleet"/>
    <trip id="223" depart="11112.20" from="1200728225#1" to="1221994726#2" type="hcmc_fleet"/>
    <trip id="224" depart="11113.60" from="1422795954" to="1267462159#2" type="hcmc_fleet"/>
    <trip id="225" depart="11115.00" from="1265822568#2" to="1221994726#1" type="hcmc_fleet"/>
    <trip id="226" depart="11116.40" from="1200728225#3" to="1267462159#1" type="hcmc_fleet"/>
    <trip id="227" depart="11117.80" from="1422795954" to="1200728225#2" type="hcmc_fleet"/>
    <trip id="228" depart="11119.20" from="1265822568#0" to="1200728225#4" type="hcmc_fleet"/>
    <trip id="229" depart="11120.60" from="1221994726#0" to="1267462159#3" type="hcmc_fleet"/>
    <trip id="230" depart="11122.00" from="1200728225#3" to="1200728225#3" type="hcmc_fleet"/>
    <trip id="231" depart="11123.40" from="1265822568#0" to="1267462159#3" type="hcmc_fleet"/>
    <trip id="232" depart="11124.80" from="1265822568#0" to="1200728225#4" type="hcmc_fleet"/>
    <trip id="233" depart="11126.20" from="1265822568#0" to="1221994726#2" type="hcmc_fleet"/>
    <trip id="234" depart="11127.60" from="1265822568#0" to="1200728225#2" type="hcmc_fleet"/>
    <trip id="235" depart="11129.00" from="1265822568#3" to="1163556238#1" type="hcmc_fleet"/>
    <trip id="236" depart="11130.40" from="1265822568#1" to="1267462159#1" type="hcmc_fleet"/>
    <trip id="237" depart="11131.80" from="1422795954" to="1221994726#1" type="hcmc_fleet"/>
    <trip id="238" depart="11133.20" from="-1163556238#1" to="1221994726#1" type="hcmc_fleet"/>
    <trip id="239" depart="11134.60" from="1265822568#0" to="1267462159#2" type="hcmc_fleet"/>
    <trip id="240" depart="11136.00" from="1265822568#2" to="1221994726#0" type="hcmc_fleet"/>
    <trip id="241" depart="11137.40" from="1265822568#1" to="1267462159#1" type="hcmc_fleet"/>
    <trip id="242" depart="11138.80" from="1267462159#1" to="1267462159#1" type="hcmc_fleet"/>
    <trip id="243" depart="11140.20" from="1265822568#2" to="1265822568#3" type="hcmc_fleet"/>
    <trip id="244" depart="11141.60" from="1267462159#2" to="1267462159#3" type="hcmc_fleet"/>
    <trip id="245" depart="11143.00" from="1265822568#3" to="1221994726#0" type="hcmc_fleet"/>
    <trip id="246" depart="11144.40" from="1265822568#2" to="1267462159#2" type="hcmc_fleet"/>
    <trip id="247" depart="11145.80" from="1200728225#3" to="1200728225#4" type="hcmc_fleet"/>
    <trip id="248" depart="11147.20" from="1200728225#1" to="1221994726#1" type="hcmc_fleet"/>
    <trip id="249" depart="11148.60" from="1265822568#0" to="1265822568#3" type="hcmc_fleet"/>
    <trip id="250" depart="11150.00" from="1200728225#2" to="1267462159#2" type="hcmc_fleet"/>
    <trip id="251" depart="11151.40" from="1200728225#1" to="1221994726#0" type="hcmc_fleet"/>
    <trip id="252" depart="11152.80" from="1200728225#2" to="1200728225#2" type="hcmc_fleet"/>
    <trip id="253" depart="11154.20" from="-1163556238#1" to="1267462159#1" type="hcmc_fleet"/>
    <trip id="254" depart="11155.60" from="1200728225#1" to="1221994726#0" type="hcmc_fleet"/>
    <trip id="255" depart="11157.00" from="1200728225#4" to="1221994726#2" type="hcmc_fleet"/>
    <trip id="256" depart="11158.40" from="1265822568#1" to="1221994726#0" type="hcmc_fleet"/>
    <trip id="257" depart="11159.80" from="1200728225#2" to="1267462159#1" type="hcmc_fleet"/>
    <trip id="258" depart="11161.20" from="1200728225#1" to="1200728225#4" type="hcmc_fleet"/>
    <trip id="259" depart="11162.60" from="1265822568#0" to="1221994726#2" type="hcmc_fleet"/>
    <trip id="260" depart="11164.00" from="1422795954" to="1200728225#3" type="hcmc_fleet"/>
    <trip id="261" depart="11165.40" from="1200728225#3" to="1221994726#2" type="hcmc_fleet"/>
    <trip id="262" depart="11166.80" from="1265822568#2" to="1265822568#3" type="hcmc_fleet"/>
    <trip id="263" depart="11168.20" from="1265822568#1" to="1200728225#4" type="hcmc_fleet"/>
    <trip id="264" depart="11169.60" from="1265822568#1" to="1265822568#1" type="hcmc_fleet"/>
    <trip id="265" depart="11171.00" from="1265822568#2" to="1265822568#2" type="hcmc_fleet"/>
    <trip id="266" depart="11172.40" from="1265822568#1" to="1267462159#1" type="hcmc_fleet"/>
    <trip id="267" depart="11173.80" from="1265822568#1" to="1267462159#2" type="hcmc_fleet"/>
    <trip id="268" depart="11175.20" from="1265822568#1" to="1200728225#3" type="hcmc_fleet"/>
    <trip id="269" depart="11176.60" from="1221994726#0" to="1221994726#2" type="hcmc_fleet"/>
    <trip id="270" depart="11178.00" from="1265822568#0" to="1267462159#3" type="hcmc_fleet"/>
    <trip id="271" depart="11179.40" from="1422795954" to="1200728225#1" type="hcmc_fleet"/>
    <trip id="272" depart="11180.80" from="1422795954" to="1267462159#1" type="hcmc_fleet"/>
    <trip id="273" depart="11182.20" from="1265822568#2" to="1267462159#3" type="hcmc_fleet"/>
    <trip id="274" depart="11183.60" from="1422795954" to="1267462159#1" type="hcmc_fleet"/>
    <trip id="275" depart="11185.00" from="-1163556238#1" to="1221994726#2" type="hcmc_fleet"/>
    <trip id="276" depart="11186.40" from="1265822568#2" to="1221994726#2" type="hcmc_fleet"/>
    <trip id="277" depart="11187.80" from="1267462159#1" to="1267462159#3" type="hcmc_fleet"/>
    <trip id="278" depart="11189.20" from="1200728225#0" to="1200728225#2" type="hcmc_fleet"/>
    <trip id="279" depart="11190.60" from="-1163556238#1" to="1267462159#2" type="hcmc_fleet"/>
    <trip id="280" depart="11192.00" from="1265822568#0" to="1267462159#2" type="hcmc_fleet"/>
    <trip id="281" depart="11193.40" from="1200728225#2" to="1163556238#1" type="hcmc_fleet"/>
    <trip id="282" depart="11194.80" from="1267462159#1" to="1267462159#2" type="hcmc_fleet"/>
    <trip id="283" depart="11196.20" from="1200728225#3" to="1221994726#0" type="hcmc_fleet"/>
    <trip id="284" depart="11197.60" from="1200728225#1" to="1267462159#3" type="hcmc_fleet"/>
    <trip id="285" depart="11199.00" from="1200728225#3" to="1221994726#1" type="hcmc_fleet"/>
    <trip id="286" depart="11200.40" from="1200728225#0" to="1267462159#2" type="hcmc_fleet"/>
    <trip id="287" depart="11201.80" from="1200728225#1" to="1221994726#0" type="hcmc_fleet"/>
    <trip id="288" depart="11203.20" from="1265822568#2" to="1265822568#3" type="hcmc_fleet"/>
    <trip id="289" depart="11204.60" from="1422795954" to="1221994726#0" type="hcmc_fleet"/>
    <trip id="290" depart="11206.00" from="1422795954" to="1163556238#1" type="hcmc_fleet"/>
    <trip id="291" depart="11207.40" from="1200728225#4" to="1221994726#0" type="hcmc_fleet"/>
    <trip id="292" depart="11208.80" from="1422795954" to="1267462159#1" type="hcmc_fleet"/>
    <trip id="293" depart="11210.20" from="1265822568#0" to="1267462159#3" type="hcmc_fleet"/>
    <trip id="294" depart="11211.60" from="1200728225#4" to="1200728225#4" type="hcmc_fleet"/>
    <trip id="295" depart="11213.00" from="1265822568#1" to="1265822568#1" type="hcmc_fleet"/>
    <trip id="296" depart="11214.40" from="1265822568#0" to="1163556238#1" type="hcmc_fleet"/>
    <trip id="297" depart="11215.80" from="1265822568#3" to="1200728225#2" type="hcmc_fleet"/>
    <trip id="298" depart="11217.20" from="1200728225#0" to="1221994726#2" type="hcmc_fleet"/>
    <trip id="299" depart="11218.60" from="1200728225#2" to="1200728225#2" type="hcmc_fleet"/>
    <trip id="300" depart="11220.00" from="1200728225#1" to="1267462159#2" type="hcmc_fleet"/>
    <trip id="301" depart="11221.40" from="-1163556238#1" to="1267462159#1" type="hcmc_fleet"/>
    <trip id="302" depart="11222.80" from="1265822568#1" to="1163556238#1" type="hcmc_fleet"/>
    <trip id="303" depart="11224.20" from="1200728225#2" to="1200728225#3" type="hcmc_fleet"/>
    <trip id="304" depart="11225.60" from="1200728225#1" to="1163556238#1" type="hcmc_fleet"/>
    <trip id="305" depart="11227.00" from="1265822568#3" to="1221994726#1" type="hcmc_fleet"/>
    <trip id="306" depart="11228.40" from="1265822568#3" to="1221994726#1" type="hcmc_fleet"/>
    <trip id="307" depart="11229.80" from="1265822568#3" to="1221994726#1" type="hcmc_fleet"/>
    <trip id="308" depart="11231.20" from="1200728225#0" to="1221994726#1" type="hcmc_fleet"/>
    <trip id="309" depart="11232.60" from="1422795954" to="1163556238#1" type="hcmc_fleet"/>