<?xml version="1.0" encoding="UTF-8"?>

<!-- generated on 2025-11-04 20:07:31.526405 by randomTrips.py v1_24_0+0000-b72eb3fabc8
<configuration>
    <net-file value="D:\AfterGradEx\de_traffic_control\map.net.xml"/>
    <additional-files value="D:\AfterGradEx\de_traffic_control\hcmc_vtypes.xml"/>
    <output-trip-file value="D:\AfterGradEx\de_traffic_control\trips_rush_7.trips.xml"/>
    <trip-attributes value="type=&quot;hcmc_fleet&quot;"/>
    <begin value="12600.0"/>
    <end value="14400.0"/>
    <period value="1.6"/>
</configuration>
-->

<routes xmlns:xsi="http://www.w3.org/2001/XMLSchema-instance" xsi:noNamespaceSchemaLocation="http://sumo.dlr.de/xsd/routes_file.xsd">
    <trip id="0" depart="12600.00" from="1265822568#1" to="1163556238#1" type="hcmc_fleet"/>
    <trip id="1" depart="12601.60" from="1200728225#2" to="1221994726#1" type="hcmc_fleet"/>
    <trip id="2" depart="12603.20" from="1265822568#1" to="1221994726#2" type="hcmc_fleet"/>
    <trip id="3" depart="12604.80" from="1200728225#2" to="1221994726#2" type="hcmc_fleet"/>
    <trip id="4" depart="12606.40" from="1422795954" to="1200728225#4" type="hcmc_fleet"/>
    <trip id="5" depart="12608.00" from="1200728225#0" to="1200728225#0" type="hcmc_fleet"/>
    <trip id="6" depart="12609.60" from="1265822568#0" to="1267462159#3" type="hcmc_fleet"/>
    <trip id="7" depart="12611.20" from="1200728225#4" to="1221994726#2" type="hcmc_fleet"/>
    <trip id="8" depart="12612.80" from="1265822568#2" to="1163556238#1" type="hcmc_fleet"/>
    <trip id="9" depart="12614.40" from="1200728225#2" to="1200728225#3" type="hcmc_fleet"/>
    <trip id="10" depart="12616.00" from="1200728225#0" to="1200728225#2" type="hcmc_fleet"/>
    <trip id="11" depart="12617.60" from="1200728225#0" to="1200728225#3" type="hcmc_fleet"/>
    <trip id="12" depart="12619.20" from="1265822568#1" to="1200728225#4" type="hcmc_fleet"/>
    <trip id="13" depart="12620.80" from="1200728225#3" to="1267462159#3" type="hcmc_fleet"/>
    <trip id="14" depart="12622.40" from="1265822568#1" to="1265822568#1" type="hcmc_fleet"/>
    <trip id="15" depart="12624.00" from="1200728225#1" to="1200728225#4" type="hcmc_fleet"/>
    <trip id="16" depart="12625.60" from="1265822568#0" to="1265822568#2" type="hcmc_fleet"/>
    <trip id="17" depart="12627.20" from="1200728225#2" to="1163556238#1" type="hcmc_fleet"/>
    <trip id="18" depart="12628.80" from="1200728225#3" to="1200728225#3" type="hcmc_fleet"/>
    <trip id="19" depart="12630.40" from="1200728225#2" to="1267462159#3" type="hcmc_fleet"/>
    <trip id="20" depart="12632.00" from="1265822568#1" to="1200728225#4" type="hcmc_fleet"/>
    <trip id="21" depart="12633.60" from="1200728225#2" to="1200728225#2" type="hcmc_fleet"/>
    <trip id="22" depart="12635.20" from="1265822568#0" to="1200728225#2" type="hcmc_fleet"/>
    <trip id="23" depart="12636.80" from="1265822568#0" to="1267462159#2" type="hcmc_fleet"/>
    <trip id="24" depart="12638.40" from="1422795954" to="1221994726#1" type="hcmc_fleet"/>
    <trip id="25" depart="12640.00" from="1200728225#0" to="1163556238#1" type="hcmc_fleet"/>
    <trip id="26" depart="12641.60" from="1265822568#3" to="1221994726#0" type="hcmc_fleet"/>
    <trip id="27" depart="12643.20" from="1422795954" to="1221994726#1" type="hcmc_fleet"/>
    <trip id="28" depart="12644.80" from="1422795954" to="1267462159#1" type="hcmc_fleet"/>
    <trip id="29" depart="12646.40" from="1265822568#2" to="1221994726#2" type="hcmc_fleet"/>
    <trip id="30" depart="12648.00" from="1200728225#0" to="1221994726#0" type="hcmc_fleet"/>
    <trip id="31" depart="12649.60" from="1221994726#0" to="1267462159#3" type="hcmc_fleet"/>
    <trip id="32" depart="12651.20" from="1267462159#2" to="1267462159#2" type="hcmc_fleet"/>
    <trip id="33" depart="12652.80" from="1265822568#3" to="1221994726#2" type="hcmc_fleet"/>
    <trip id="34" depart="12654.40" from="1265822568#3" to="1221994726#1" type="hcmc_fleet"/>
    <trip id="35" depart="12656.00" from="-1163556238#1" to="1267462159#2" type="hcmc_fleet"/>
    <trip id="36" depart="12657.60" from="1200728225#3" to="1163556238#1" type="hcmc_fleet"/>
    <trip id="37" depart="12659.20" from="1267462159#2" to="1267462159#3" type="hcmc_fleet"/>
    <trip id="38" depart="12660.80" from="1200728225#0" to="1221994726#1" type="hcmc_fleet"/>
    <trip id="39" depart="12662.40" from="1221994726#1" to="1221994726#2" type="hcmc_fleet"/>
    <trip id="40" depart="12664.00" from="1200728225#2" to="1267462159#2" type="hcmc_fleet"/>
    <trip id="41" depart="12665.60" from="1265822568#0" to="1265822568#2" type="hcmc_fleet"/>
    <trip id="42" depart="12667.20" from="1200728225#2" to="1200728225#3" type="hcmc_fleet"/>
    <trip id="43" depart="12668.80" from="1221994726#0" to="1221994726#1" type="hcmc_fleet"/>
    <trip id="44" depart="12670.40" from="1200728225#0" to="1200728225#2" type="hcmc_fleet"/>
    <trip id="45" depart="12672.00" from="1200728225#4" to="1221994726#2" type="hcmc_fleet"/>
    <trip id="46" depart="12673.60" from="1200728225#2" to="1200728225#2" type="hcmc_fleet"/>
    <trip id="47" depart="12675.20" from="1200728225#2" to="1267462159#2" type="hcmc_fleet"/>
    <trip id="48" depart="12676.80" from="1422795954" to="1221994726#2" type="hcmc_fleet"/>
    <trip id="49" depart="12678.40" from="1200728225#0" to="1221994726#0" type="hcmc_fleet"/>
    <trip id="50" depart="12680.00" from="1221994726#0" to="1221994726#1" type="hcmc_fleet"/>
    <trip id="51" depart="12681.60" from="1265822568#2" to="1265822568#2" type="hcmc_fleet"/>
    <trip id="52" depart="12683.20" from="1422795954" to="1200728225#0" type="hcmc_fleet"/>
    <trip id="53" depart="12684.80" from="1200728225#1" to="1221994726#0" type="hcmc_fleet"/>
    <trip id="54" depart="12686.40" from="1200728225#2" to="1267462159#2" type="hcmc_fleet"/>
    <trip id="55" depart="12688.00" from="1221994726#0" to="1267462159#1" type="hcmc_fleet"/>
    <trip id="56" depart="12689.60" from="1265822568#0" to="1163556238#1" type="hcmc_fleet"/>
    <trip id="57" depart="12691.20" from="1422795954" to="1267462159#1" type="hcmc_fleet"/>
    <trip id="58" depart="12692.80" from="1422795954" to="1267462159#2" type="hcmc_fleet"/>
    <trip id="59" depart="12694.40" from="1200728225#4" to="1267462159#3" type="hcmc_fleet"/>
    <trip id="60" depart="12696.00" from="1221994726#0" to="1221994726#0" type="hcmc_fleet"/>
    <trip id="61" depart="12697.60" from="1422795954" to="1267462159#3" type="hcmc_fleet"/>
    <trip id="62" depart="12699.20" from="1265822568#0" to="1265822568#2" type="hcmc_fleet"/>
    <trip id="63" depart="12700.80" from="1200728225#1" to="1200728225#3" type="hcmc_fleet"/>
    <trip id="64" depart="12702.40" from="1422795954" to="1221994726#2" type="hcmc_fleet"/>
    <trip id="65" depart="12704.00" from="1265822568#0" to="1265822568#3" type="hcmc_fleet"/>
    <trip id="66" depart="12705.60" from="-1163556238#1" to="1221994726#2" type="hcmc_fleet"/>
    <trip id="67" depart="12707.20" from="1200728225#1" to="1267462159#3" type="hcmc_fleet"/>
    <trip id="68" depart="12708.80" from="1200728225#0" to="1200728225#1" type="hcmc_fleet"/>
    <trip id="69" depart="12710.40" from="1265822568#0" to="1265822568#2" type="hcmc_fleet"/>
    <trip id="70" depart="12712.00" from="1265822568#0" to="1265822568#1" type="hcmc_fleet"/>
    <trip id="71" depart="12713.60" from="1221994726#0" to="1221994726#2" type="hcmc_fleet"/>
    <trip id="72" depart="12715.20" from="1200728225#2" to="1200728225#4" type="hcmc_fleet"/>
    <trip id="73" depart="12716.80" from="1265822568#2" to="1200728225#3" type="hcmc_fleet"/>
    <trip id="74" depart="12718.40" from="1200728225#0" to="1221994726#0" type="hcmc_fleet"/>
    <trip id="75" depart="12720.00" from="1422795954" to="1267462159#3" type="hcmc_fleet"/>
    <trip id="76" depart="12721.60" from="1200728225#0" to="1200728225#2" type="hcmc_fleet"/>
    <trip id="77" depart="12723.20" from="1200728225#2" to="1267462159#2" type="hcmc_fleet"/>
    <trip id="78" depart="12724.80" from="1267462159#2" to="1267462159#2" type="hcmc_fleet"/>
    <trip id="79" depart="12726.40" from="1265822568#1" to="1267462159#3" type="hcmc_fleet"/>
    <trip id="80" depart="12728.00" from="1265822568#1" to="1163556238#1" type="hcmc_fleet"/>
    <trip id="81" depart="12729.60" from="1265822568#1" to="1267462159#3" type="hcmc_fleet"/>
    <trip id="82" depart="12731.20" from="1200728225#0" to="1221994726#2" type="hcmc_fleet"/>
    <trip id="83" depart="12732.80" from="1265822568#2" to="1200728225#2" type="hcmc_fleet"/>
    <trip id="84" depart="12734.40" from="1265822568#1" to="1200728225#2" type="hcmc_fleet"/>
    <trip id="85" depart="12736.00" from="1265822568#1" to="1200728225#2" type="hcmc_fleet"/>
    <trip id="86" depart="12737.60" from="1265822568#3" to="1221994726#2" type="hcmc_fleet"/>
    <trip id="87" depart="12739.20" from="1200728225#0" to="1267462159#2" type="hcmc_fleet"/>
    <trip id="88" depart="12740.80" from="1200728225#3" to="1267462159#2" type="hcmc_fleet"/>
    <trip id="89" depart="12742.40" from="1265822568#3" to="1267462159#1" type="hcmc_fleet"/>
    <trip id="90" depart="12744.00" from="1265822568#3" to="1267462159#2" type="hcmc_fleet"/>
    <trip id="91" depart="12745.60" from="1200728225#1" to="1267462159#2" type="hcmc_fleet"/>
    <trip id="92" depart="12747.20" from="1267462159#1" to="1267462159#3" type="hcmc_fleet"/>
    <trip id="93" depart="12748.80" from="1267462159#1" to="1267462159#2" type="hcmc_fleet"/>
    <trip id="94" depart="12750.40" from="1200728225#3" to="1267462159#2" type="hcmc_fleet"/>
    <trip id="95" depart="12752.00" from="1267462159#1" to="1267462159#1" type="hcmc_fleet"/>
    <trip id="96" depart="12753.60" from="1200728225#2" to="1267462159#1" type="hcmc_fleet"/>
    <trip id="97" depart="12755.20" from="1265822568#3" to="1200728225#2" type="hcmc_fleet"/>
    <trip id="98" depart="12756.80" from="1200728225#3" to="1267462159#1" type="hcmc_fleet"/>
    <trip id="99" depart="12758.40" from="1422795954" to="1200728225#3" type="hcmc_fleet"/>
    <trip id="100" depart="12760.00" from="1265822568#1" to="1200728225#4" type="hcmc_fleet"/>
    <trip id="101" depart="12761.60" from="1422795954" to="1221994726#2" type="hcmc_fleet"/>
    <trip id="102" depart="12763.20" from="1422795954" to="1200728225#0" type="hcmc_fleet"/>
    <trip id="103" depart="12764.80" from="1422795954" to="1200728225#1" type="hcmc_fleet"/>
    <trip id="104" depart="12766.40" from="1422795954" to="1200728225#2" type="hcmc_fleet"/>
    <trip id="105" depart="12768.00" from="1200728225#0" to="1221994726#0" type="hcmc_fleet"/>
    <trip id="106" depart="12769.60" from="1265822568#2" to="1200728225#3" type="hcmc_fleet"/>
    <trip id="107" depart="12771.20" from="1265822568#1" to="1221994726#1" type="hcmc_fleet"/>
    <trip id="108" depart="12772.80" from="1200728225#4" to="1221994726#2" type="hcmc_fleet"/>
    <trip id="109" depart="12774.40" from="-1163556238#1" to="1267462159#2" type="hcmc_fleet"/>
    <trip id="110" depart="12776.00" from="1265822568#0" to="1265822568#2" type="hcmc_fleet"/>
    <trip id="111" depart="12777.60" from="1265822568#1" to="1200728225#3" type="hcmc_fleet"/>
    <trip id="112" depart="12779.20" from="1200728225#3" to="1267462159#1" type="hcmc_fleet"/>
    <trip id="113" depart="12780.80" from="1265822568#2" to="1200728225#3" type="hcmc_fleet"/>
    <trip id="114" depart="12782.40" from="1200728225#3" to="1221994726#0" type="hcmc_fleet"/>
    <trip id="115" depart="12784.00" from="1200728225#0" to="1221994726#0" type="hcmc_fleet"/>
    <trip id="116" depart="12785.60" from="1200728225#3" to="1221994726#2" type="hcmc_fleet"/>
    <trip id="117" depart="12787.20" from="1221994726#0" to="1221994726#2" type="hcmc_fleet"/>
    <trip id="118" depart="12788.80" from="1265822568#1" to="1221994726#0" type="hcmc_fleet"/>
    <trip id="119" depart="12790.40" from="1200728225#0" to="1221994726#1" type="hcmc_fleet"/>
    <trip id="120" depart="12792.00" from="1265822568#1" to="1200728225#4" type="hcmc_fleet"/>
    <trip id="121" depart="12793.60" from="1265822568#2" to="1200728225#2" type="hcmc_fleet"/>
    <trip id="122" depart="12795.20" from="1200728225#1" to="1163556238#1" type="hcmc_fleet"/>
    <trip id="123" depart="12796.80" from="1200728225#2" to="1221994726#1" type="hcmc_fleet"/>
    <trip id="124" depart="12798.40" from="1265822568#1" to="1163556238#1" type="hcmc_fleet"/>
    <trip id="125" depart="12800.00" from="1265822568#3" to="1265822568#3" type="hcmc_fleet"/>
    <trip id="126" depart="12801.60" from="1200728225#0" to="1221994726#0" type="hcmc_fleet"/>
    <trip id="127" depart="12803.20" from="1200728225#1" to="1267462159#3" type="hcmc_fleet"/>
    <trip id="128" depart="12804.80" from="1200728225#2" to="1267462159#1" type="hcmc_fleet"/>
    <trip id="129" depart="12806.40" from="1221994726#0" to="1267462159#1" type="hcmc_fleet"/>
    <trip id="130" depart="12808.00" from="1265822568#2" to="1267462159#3" type="hcmc_fleet"/>
    <trip id="131" depart="12809.60" from="1265822568#0" to="1267462159#3" type="hcmc_fleet"/>
    <trip id="132" depart="12811.20" from="1265822568#2" to="1221994726#1" type="hcmc_fleet"/>
    <trip id="133" depart="12812.80" from="1265822568#3" to="1221994726#1" type="hcmc_fleet"/>
    <trip id="134" depart="12814.40" from="1265822568#1" to="1200728225#3" type="hcmc_fleet"/>
    <trip id="135" depart="12816.00" from="1200728225#0" to="1200728225#3" type="hcmc_fleet"/>
    <trip id="136" depart="12817.60" from="1200728225#3" to="1200728225#3" type="hcmc_fleet"/>
    <trip id="137" depart="12819.20" from="1265822568#2" to="1163556238#1" type="hcmc_fleet"/>
    <trip id="138" depart="12820.80" from="1221994726#0" to="1221994726#2" type="hcmc_fleet"/>
    <trip id="139" depart="12822.40" from="1221994726#0" to="1267462159#2" type="hcmc_fleet"/>
    <trip id="140" depart="12824.00" from="1265822568#0" to="1265822568#2" type="hcmc_fleet"/>
    <trip id="141" depart="12825.60" from="1200728225#4" to="1163556238#1" type="hcmc_fleet"/>
    <trip id="142" depart="12827.20" from="1267462159#1" to="1267462159#3" type="hcmc_fleet"/>
    <trip id="143" depart="12828.80" from="1265822568#0" to="1265822568#1" type="hcmc_fleet"/>
    <trip id="144" depart="12830.40" from="1200728225#2" to="1200728225#2" type="hcmc_fleet"/>
    <trip id="145" depart="12832.00" from="1265822568#1" to="1163556238#1" type="hcmc_fleet"/>
    <trip id="146" depart="12833.60" from="1200728225#4" to="1221994726#2" type="hcmc_fleet"/>
    <trip id="147" depart="12835.20" from="1200728225#1" to="1221994726#0" type="hcmc_fleet"/>
    <trip id="148" depart="12836.80" from="1200728225#2" to="1200728225#3" type="hcmc_fleet"/>
    <trip id="149" depart="12838.40" from="1265822568#3" to="1200728225#4" type="hcmc_fleet"/>
    <trip id="150" depart="12840.00" from="1265822568#3" to="1267462159#1" type="hcmc_fleet"/>
    <trip id="151" depart="12841.60" from="-1163556238#1" to="1221994726#2" type="hcmc_fleet"/>
    <trip id="152" depart="12843.20" from="1422795954" to="1200728225#4" type="hcmc_fleet"/>
    <trip id="153" depart="12844.80" from="1265822568#1" to="1265822568#3" type="hcmc_fleet"/>
    <trip id="154" depart="12846.40" from="1265822568#1" to="1265822568#3" type="hcmc_fleet"/>
    <trip id="155" depart="12848.00" from="1422795954" to="1200728225#1" type="hcmc_fleet"/>
    <trip id="156" depart="12849.60" from="1265822568#0" to="1200728225#2" type="hcmc_fleet"/>
    <trip id="157" depart="12851.20" from="1265822568#2" to="1265822568#3" type="hcmc_fleet"/>
    <trip id="158" depart="12852.80" from="1267462159#1" to="1267462159#3" type="hcmc_fleet"/>
    <trip id="159" depart="12854.40" from="1200728225#0" to="1163556238#1" type="hcmc_fleet"/>
    <trip id="160" depart="12856.00" from="1422795954" to="1200728225#4" type="hcmc_fleet"/>
    <trip id="161" depart="12857.60" from="1200728225#0" to="1267462159#3" type="hcmc_fleet"/>
    <trip id="162" depart="12859.20" from="1265822568#3" to="1200728225#4" type="hcmc_fleet"/>
    <trip id="163" depart="12860.80" from="1267462159#1" to="1267462159#1" type="hcmc_fleet"/>
    <trip id="164" depart="12862.40" from="1200728225#0" to="1267462159#3" type="hcmc_fleet"/>
    <trip id="165" depart="12864.00" from="1265822568#1" to="1267462159#1" type="hcmc_fleet"/>
    <trip id="166" depart="12865.60" from="1265822568#2" to="1221994726#0" type="hcmc_fleet"/>
    <trip id="167" depart="12867.20" from="1265822568#3" to="1267462159#3" type="hcmc_fleet"/>
    <trip id="168" depart="12868.80" from="1200728225#3" to="1267462159#1" type="hcmc_fleet"/>
    <trip id="169" depart="12870.40" from="1265822568#0" to="1221994726#1" type="hcmc_fleet"/>
    <trip id="170" depart="12872.00" from="1200728225#3" to="1267462159#1" type="hcmc_fleet"/>
    <trip id="171" depart="12873.60" from="1200728225#4" to="1163556238#1" type="hcmc_fleet"/>
    <trip id="172" depart="12875.20" from="1200728225#4" to="1267462159#2" type="hcmc_fleet"/>
    <trip id="173" depart="12876.80" from="1265822568#2" to="1200728225#3" type="hcmc_fleet"/>
    <trip id="174" depart="12878.40" from="-1163556238#1" to="1267462159#3" type="hcmc_fleet"/>
    <trip id="175" depart="12880.00" from="1200728225#0" to="1200728225#2" type="hcmc_fleet"/>
    <trip id="176" depart="12881.60" from="1265822568#2" to="1200728225#3" type="hcmc_fleet"/>
    <trip id="177" depart="12883.20" from="1265822568#0" to="1221994726#1" type="hcmc_fleet"/>
    <trip id="178" depart="12884.80" from="1265822568#3" to="1200728225#3" type="hcmc_fleet"/>
    <trip id="179" depart="12886.40" from="1265822568#2" to="1200728225#3" type="hcmc_fleet"/>
    <trip id="180" depart="12888.00" from="1265822568#0" to="1265822568#3" type="hcmc_fleet"/>
    <trip id="181" depart="12889.60" from="1200728225#1" to="1200728225#2" type="hcmc_fleet"/>
    <trip id="182" depart="12891.20" from="1422795954" to="1221994726#1" type="hcmc_fleet"/>
    <trip id="183" depart="12892.80" from="1200728225#1" to="1200728225#2" type="hcmc_fleet"/>
    <trip id="184" depart="12894.40" from="1200728225#1" to="1163556238#1" type="hcmc_fleet"/>
    <trip id="185" depart="12896.00" from="1265822568#0" to="1200728225#3" type="hcmc_fleet"/>
    <trip id="186" depart="12897.60" from="1422795954" to="1221994726#2" type="hcmc_fleet"/>
    <trip id="187" depart="12899.20" from="1200728225#1" to="1163556238#1" type="hcmc_fleet"/>
    <trip id="188" depart="12900.80" from="1422795954" to="1221994726#1" type="hcmc_fleet"/>
    <trip id="189" depart="12902.40" from="1265822568#0" to="1200728225#3" type="hcmc_fleet"/>
    <trip id="190" depart="12904.00" from="1422795954" to="1200728225#0" type="hcmc_fleet"/>
    <trip id="191" depart="12905.60" from="1265822568#3" to="1200728225#2" type="hcmc_fleet"/>
    <trip id="192" depart="12907.20" from="1221994726#0" to="1267462159#1" type="hcmc_fleet"/>
    <trip id="193" depart="12908.80" from="1422795954" to="1200728225#3" type="hcmc_fleet"/>
    <trip id="194" depart="12910.40" from="1265822568#1" to="1265822568#1" type="hcmc_fleet"/>
    <trip id="195" depart="12912.00" from="1265822568#3" to="1267462159#3" type="hcmc_fleet"/>
    <trip id="196" depart="12913.60" from="1200728225#2" to="1200728225#2" type="hcmc_fleet"/>
    <trip id="197" depart="12915.20" from="-1163556238#1" to="1221994726#0" type="hcmc_fleet"/>
    <trip id="198" depart="12916.80" from="1265822568#0" to="1200728225#3" type="hcmc_fleet"/>
    <trip id="199" depart="12918.40" from="1265822568#2" to="1221994726#0" type="hcmc_fleet"/>
    <trip id="200" depart="12920.00" from="1265822568#2" to="1267462159#2" type="hcmc_fleet"/>
    <trip id="201" depart="12921.60" from="1265822568#1" to="1267462159#3" type="hcmc_fleet"/>
    <trip id="202" depart="12923.20" from="1221994726#0" to="1221994726#2" type="hcmc_fleet"/>
    <trip id="203" depart="12924.80" from="1265822568#1" to="1267462159#2" type="hcmc_fleet"/>
    <trip id="204" depart="12926.40" from="1200728225#1" to="1200728225#3" type="hcmc_fleet"/>
    <trip id="205" depart="12928.00" from="1265822568#3" to="1221994726#2" type="hcmc_fleet"/>
    <trip id="206" depart="12929.60" from="1265822568#2" to="1265822568#2" type="hcmc_fleet"/>
    <trip id="207" depart="12931.20" from="1422795954" to="1221994726#1" type="hcmc_fleet"/>
    <trip id="208" depart="12932.80" from="-1163556238#1" to="1221994726#0" type="hcmc_fleet"/>
    <trip id="209" depart="12934.40" from="1200728225#0" to="1267462159#3" type="hcmc_fleet"/>
    <trip id="210" depart="12936.00" from="1422795954" to="1267462159#3" type="hcmc_fleet"/>
    <trip id="211" depart="12937.60" from="1265822568#2" to="1200728225#3" type="hcmc_fleet"/>
    <trip id="212" depart="12939.20" from="1265822568#0" to="1265822568#1" type="hcmc_fleet"/>
    <trip id="213" depart="12940.80" from="1265822568#2" to="1267462159#1" type="hcmc_fleet"/>
    <trip id="214" depart="12942.40" from="1200728225#3" to="1267462159#3" type="hcmc_fleet"/>
    <trip id="215" depart="12944.00" from="1200728225#3" to="1267462159#3" type="hcmc_fleet"/>
    <trip id="216" depart="12945.60" from="1221994726#0" to="1221994726#1" type="hcmc_fleet"/>
    <trip id="217" depart="12947.20" from="1265822568#0" to="1221994726#0" type="hcmc_fleet"/>
    <trip id="218" depart="12948.80" from="1200728225#1" to="1200728225#4" type="hcmc_fleet"/>
    <trip id="219" depart="12950.40" from="1265822568#3" to="1200728225#2" type="hcmc_fleet"/>
    <trip id="220" depart="12952.00" from="1265822568#0" to="1267462159#2" type="hcmc_fleet"/>
    <trip id="221" depart="12953.60" from="1200728225#0" to="1267462159#3" type="hcmc_fleet"/>
    <trip id="222" depart="12955.20" from="1265822568#1" to="1200728225#2" type="hcmc_fleet"/>
    <trip id="223" depart="12956.80" from="1200728225#1" to="1221994726#2" type="hcmc_fleet"/>
    <trip id="224" depart="12958.40" from="1422795954" to="1267462159#2" type="hcmc_fleet"/>
    <trip id="225" depart="12960.00" from="1265822568#2" to="1221994726#1" type="hcmc_fleet"/>
    <trip id="226" depart="12961.60" from="1200728225#3" to="1267462159#1" type="hcmc_fleet"/>
    <trip id="227" depart="12963.20" from="1422795954" to="1200728225#2" type="hcmc_fleet"/>
    <trip id="228" depart="12964.80" from="1265822568#0" to="1200728225#4" type="hcmc_fleet"/>
    <trip id="229" depart="12966.40" from="1221994726#0" to="1267462159#3" type="hcmc_fleet"/>
    <trip id="230" depart="12968.00" from="1200728225#3" to="1200728225#3" type="hcmc_fleet"/>
    <trip id="231" depart="12969.60" from="1265822568#0" to="1267462159#3" type="hcmc_fleet"/>
    <trip id="232" depart="12971.20" from="1265822568#0" to="1200728225#4" type="hcmc_fleet"/>
    <trip id="233" depart="12972.80" from="1265822568#0" to="1221994726#2" type="hcmc_fleet"/>
    <trip id="234" depart="12974.40" from="1265822568#0" to="1200728225#2" type="hcmc_fleet"/>
    <trip id="235" depart="12976.00" from="1265822568#3" to="1163556238#1" type="hcmc_fleet"/>
    <trip id="236" depart="12977.60" from="1265822568#1" to="1267462159#1" type="hcmc_fleet"/>
    <trip id="237" depart="12979.20" from="1422795954" to="1221994726#1" type="hcmc_fleet"/>
    <trip id="238" depart="12980.80" from="-1163556238#1" to="1221994726#1" type="hcmc_fleet"/>
    <trip id="239" depart="12982.40" from="1265822568#0" to="1267462159#2" type="hcmc_fleet"/>
    <trip id="240" depart="12984.00" from="1265822568#2" to="1221994726#0" type="hcmc_fleet"/>
    <trip id="241" depart="12985.60" from="1265822568#1" to="1267462159#1" type="hcmc_fleet"/>
    <trip id="242" depart="12987.20" from="1267462159#1" to="1267462159#1" type="hcmc_fleet"/>
    <trip id="243" depart="12988.80" from="1265822568#2" to="1265822568#3" type="hcmc_fleet"/>
    <trip id="244" depart="12990.40" from="1267462159#2" to="1267462159#3" type="hcmc_fleet"/>
    <trip id="245" depart="12992.00" from="1265822568#3" to="1221994726#0" type="hcmc_fleet"/>
    <trip id="246" depart="12993.60" from="1265822568#2" to="1267462159#2" type="hcmc_fleet"/>
    <trip id="247" depart="12995.20" from="1200728225#3" to="1200728225#4" type="hcmc_fleet"/>
    <trip id="248" depart="12996.80" from="1200728225#1" to="1221994726#1" type="hcmc_fleet"/>
    <trip id="249" depart="12998.40" from="1265822568#0" to="1265822568#3" type="hcmc_fleet"/>
    <trip id="250" depart="13000.00" from="1200728225#2" to="1267462159#2" type="hcmc_fleet"/>
    <trip id="251" depart="13001.60" from="1200728225#1" to="1221994726#0" type="hcmc_fleet"/>
    <trip id="252" depart="13003.20" from="1200728225#2" to="1200728225#2" type="hcmc_fleet"/>
    <trip id="253" depart="13004.80" from="-1163556238#1" to="1267462159#1" type="hcmc_fleet"/>
    <trip id="254" depart="13006.40" from="1200728225#1" to="1221994726#0" type="hcmc_fleet"/>
    <trip id="255" depart="13008.00" from="1200728225#4" to="1221994726#2" type="hcmc_fleet"/>
    <trip id="256" depart="13009.60" from="1265822568#1" to="1221994726#0" type="hcmc_fleet"/>
    <trip id="257" depart="13011.20" from="1200728225#2" to="1267462159#1" type="hcmc_fleet"/>
    <trip id="258" depart="13012.80" from="1200728225#1" to="1200728225#4" type="hcmc_fleet"/>
    <trip id="259" depart="13014.40" from="1265822568#0" to="1221994726#2" type="hcmc_fleet"/>
    <trip id="260" depart="13016.00" from="1422795954" to="1200728225#3" type="hcmc_fleet"/>
    <trip id="261" depart="13017.60" from="1200728225#3" to="1221994726#2" type="hcmc_fleet"/>
    <trip id="262" depart="13019.20" from="1265822568#2" to="1265822568#3" type="hcmc_fleet"/>
    <trip id="263" depart="13020.80" from="1265822568#1" to="1200728225#4" type="hcmc_fleet"/>
    <trip id="264" depart="13022.40" from="1265822568#1" to="1265822568#1" type="hcmc_fleet"/>
    <trip id="265" depart="13024.00" from="1265822568#2" to="1265822568#2" type="hcmc_fleet"/>
    <trip id="266" depart="13025.60" from="1265822568#1" to="1267462159#1" type="hcmc_fleet"/>
    <trip id="267" depart="13027.20" from="1265822568#1" to="1267462159#2" type="hcmc_fleet"/>
    <trip id="268" depart="13028.80" from="1265822568#1" to="1200728225#3" type="hcmc_fleet"/>
    <trip id="269" depart="13030.40" from="1221994726#0" to="1221994726#2" type="hcmc_fleet"/>
    <trip id="270" depart="13032.00" from="1265822568#0" to="1267462159#3" type="hcmc_fleet"/>
    <trip id="271" depart="13033.60" from="1422795954" to="1200728225#1" type="hcmc_fleet"/>
    <trip id="272" depart="13035.20" from="1422795954" to="1267462159#1" type="hcmc_fleet"/>
    <trip id="273" depart="13036.80" from="1265822568#2" to="1267462159#3" type="hcmc_fleet"/>
    <trip id="274" depart="13038.40" from="1422795954" to="1267462159#1" type="hcmc_fleet"/>
    <trip id="275" depart="13040.00" from="-1163556238#1" to="1221994726#2" type="hcmc_fleet"/>
    <trip id="276" depart="13041.60" from="1265822568#2" to="1221994726#2" type="hcmc_fleet"/>
    <trip id="277" depart="13043.20" from="1267462159#1" to="1267462159#3" type="hcmc_fleet"/>
    <trip id="278" depart="13044.80" from="1200728225#0" to="1200728225#2" type="hcmc_fleet"/>
    <trip id="279" depart="13046.40" from="-1163556238#1" to="1267462159#2" type="hcmc_fleet"/>
    <trip id="280" depart="13048.00" from="1265822568#0" to="1267462159#2" type="hcmc_fleet"/>
    <trip id="281" depart="13049.60" from="1200728225#2" to="1163556238#1" type="hcmc_fleet"/>
    <trip id="282" depart="13051.20" from="1267462159#1" to="1267462159#2" type="hcmc_fleet"/>
    <trip id="283" depart="13052.80" from="1200728225#3" to="1221994726#0" type="hcmc_fleet"/>
    <trip id="284" depart="13054.40" from="1200728225#1" to="1267462159#3" type="hcmc_fleet"/>
    <trip id="285" depart="13056.00" from="1200728225#3" to="1221994726#1" type="hcmc_fleet"/>
    <trip id="286" depart="13057.60" from="1200728225#0" to="1267462159#2" type="hcmc_fleet"/>
    <trip id="287" depart="13059.20" from="1200728225#1" to="1221994726#0" type="hcmc_fleet"/>
    <trip id="288" depart="13060.80" from="1265822568#2" to="1265822568#3" type="hcmc_fleet"/>
    <trip id="289" depart="13062.40" from="1422795954" to="1221994726#0" type="hcmc_fleet"/>
    <trip id="290" depart="13064.00" from="1422795954" to="1163556238#1" type="hcmc_fleet"/>
    <trip id="291" depart="13065.60" from="1200728225#4" to="1221994726#0" type="hcmc_fleet"/>
    <trip id="292" depart="13067.20" from="1422795954" to="1267462159#1" type="hcmc_fleet"/>
    <trip id="293" depart="13068.80" from="1265822568#0" to="1267462159#3" type="hcmc_fleet"/>
    <trip id="294" depart="13070.40" from="1200728225#4" to="1200728225#4" type="hcmc_fleet"/>
    <trip id="295" depart="13072.00" from="1265822568#1" to="1265822568#1" type="hcmc_fleet"/>
    <trip id="296" depart="13073.60" from="1265822568#0" to="1163556238#1" type="hcmc_fleet"/>
    <trip id="297" depart="13075.20" from="1265822568#3" to="1200728225#2" type="hcmc_fleet"/>
    <trip id="298" depart="13076.80" from="1200728225#0" to="1221994726#2" type="hcmc_fleet"/>
    <trip id="299" depart="13078.40" from="1200728225#2" to="1200728225#2" type="hcmc_fleet"/>
    <trip id="300" depart="13080.00" from="1200728225#1" to="1267462159#2" type="hcmc_fleet"/>
    <trip id="301" depart="13081.60" from="-1163556238#1" to="1267462159#1" type="hcmc_fleet"/>
    <trip id="302" depart="13083.20" from="1265822568#1" to="1163556238#1" type="hcmc_fleet"/>
    <trip id="303" depart="13084.80" from="1200728225#2" to="1200728225#3" type="hcmc_fleet"/>
    <trip id="304" depart="13086.40" from="1200728225#1" to="1163556238#1" type="hcmc_fleet"/>
    <trip id="305" depart="13088.00" from="1265822568#3" to="1221994726#1" type="hcmc_fleet"/>
    <trip id="306" depart="13089.60" from="1265822568#3" to="1221994726#1" type="hcmc_fleet"/>
    <trip id="307" depart="13091.20" from="1265822568#3" to="1221994726#1" type="hcmc_fleet"/>
    <trip id="308" depart="13092.80" from="1200728225#0" to="1221994726#1" type="hcmc_fleet"/>
    <trip id="309" depart="13094.40" from="1422795954" to="1163556238#1" type="hcmc_fleet"/>