<?xml version="1.0" encoding="UTF-8"?>

<!-- generated on 2025-11-04 20:06:59.066663 by randomTrips.py v1_24_0+0000-b72eb3fabc8
<configuration>
    <net-file value="D:\AfterGradEx\de_traffic_control\map.net.xml"/>
    <additional-files value="D:\AfterGradEx\de_traffic_control\hcmc_vtypes.xml"/>
    <output-trip-file value="D:\AfterGradEx\de_traffic_control\trips_rush_1.trips.xml"/>
    <trip-attributes value="type=&quot;hcmc_fleet&quot;"/>
    <begin value="1800.0"/>
    <period value="1.6"/>
</configuration>
-->

<routes xmlns:xsi="http://www.w3.org/2001/XMLSchema-instance" xsi:noNamespaceSchemaLocation="http://sumo.dlr.de/xsd/routes_file.xsd">
    <trip id="0" depart="1800.00" from="1265822568#1" to="1163556238#1" type="hcmc_fleet"/>
    <trip id="1" depart="1801.60" from="1200728225#2" to="1221994726#1" type="hcmc_fleet"/>
    <trip id="2" depart="1803.20" from="1265822568#1" to="1221994726#2" type="hcmc_fleet"/>
    <trip id="3" depart="1804.80" from="1200728225#2" to="1221994726#2" type="hcmc_fleet"/>
    <trip id="4" depart="1806.40" from="1422795954" to="1200728225#4" type="hcmc_fleet"/>
    <trip id="5" depart="1808.00" from="1200728225#0" to="1200728225#0" type="hcmc_fleet"/>
    <trip id="6" depart="1809.60" from="1265822568#0" to="1267462159#3" type="hcmc_fleet"/>
    <trip id="7" depart="1811.20" from="1200728225#4" to="1221994726#2" type="hcmc_fleet"/>
    <trip id="8" depart="1812.80" from="1265822568#2" to="1163556238#1" type="hcmc_fleet"/>
    <trip id="9" depart="1814.40" from="1200728225#2" to="1200728225#3" type="hcmc_fleet"/>
    <trip id="10" depart="1816.00" from="1200728225#0" to="1200728225#2" type="hcmc_fleet"/>
    <trip id="11" depart="1817.60" from="1200728225#0" to="1200728225#3" type="hcmc_fleet"/>
    <trip id="12" depart="1819.20" from="1265822568#1" to="1200728225#4" type="hcmc_fleet"/>
    <trip id="13" depart="1820.80" from="1200728225#3" to="1267462159#3" type="hcmc_fleet"/>
    <trip id="14" depart="1822.40" from="1265822568#1" to="1265822568#1" type="hcmc_fleet"/>
    <trip id="15" depart="1824.00" from="1200728225#1" to="1200728225#4" type="hcmc_fleet"/>
    <trip id="16" depart="1825.60" from="1265822568#0" to="1265822568#2" type="hcmc_fleet"/>
    <trip id="17" depart="1827.20" from="1200728225#2" to="1163556238#1" type="hcmc_fleet"/>
    <trip id="18" depart="1828.80" from="1200728225#3" to="1200728225#3" type="hcmc_fleet"/>
    <trip id="19" depart="1830.40" from="1200728225#2" to="1267462159#3" type="hcmc_fleet"/>
    <trip id="20" depart="1832.00" from="1265822568#1" to="1200728225#4" type="hcmc_fleet"/>
    <trip id="21" depart="1833.60" from="1200728225#2" to="1200728225#2" type="hcmc_fleet"/>
    <trip id="22" depart="1835.20" from="1265822568#0" to="1200728225#2" type="hcmc_fleet"/>
    <trip id="23" depart="1836.80" from="1265822568#0" to="1267462159#2" type="hcmc_fleet"/>
    <trip id="24" depart="1838.40" from="1422795954" to="1221994726#1" type="hcmc_fleet"/>
    <trip id="25" depart="1840.00" from="1200728225#0" to="1163556238#1" type="hcmc_fleet"/>
    <trip id="26" depart="1841.60" from="1265822568#3" to="1221994726#0" type="hcmc_fleet"/>
    <trip id="27" depart="1843.20" from="1422795954" to="1221994726#1" type="hcmc_fleet"/>
    <trip id="28" depart="1844.80" from="1422795954" to="1267462159#1" type="hcmc_fleet"/>
    <trip id="29" depart="1846.40" from="1265822568#2" to="1221994726#2" type="hcmc_fleet"/>
    <trip id="30" depart="1848.00" from="1200728225#0" to="1221994726#0" type="hcmc_fleet"/>
    <trip id="31" depart="1849.60" from="1221994726#0" to="1267462159#3" type="hcmc_fleet"/>
    <trip id="32" depart="1851.20" from="1267462159#2" to="1267462159#2" type="hcmc_fleet"/>
    <trip id="33" depart="1852.80" from="1265822568#3" to="1221994726#2" type="hcmc_fleet"/>
    <trip id="34" depart="1854.40" from="1265822568#3" to="1221994726#1" type="hcmc_fleet"/>
    <trip id="35" depart="1856.00" from="-1163556238#1" to="1267462159#2" type="hcmc_fleet"/>
    <trip id="36" depart="1857.60" from="1200728225#3" to="1163556238#1" type="hcmc_fleet"/>
    <trip id="37" depart="1859.20" from="1267462159#2" to="1267462159#3" type="hcmc_fleet"/>
    <trip id="38" depart="1860.80" from="1200728225#0" to="1221994726#1" type="hcmc_fleet"/>
    <trip id="39" depart="1862.40" from="1221994726#1" to="1221994726#2" type="hcmc_fleet"/>
    <trip id="40" depart="1864.00" from="1200728225#2" to="1267462159#2" type="hcmc_fleet"/>
    <trip id="41" depart="1865.60" from="1265822568#0" to="1265822568#2" type="hcmc_fleet"/>
    <trip id="42" depart="1867.20" from="1200728225#2" to="1200728225#3" type="hcmc_fleet"/>
    <trip id="43" depart="1868.80" from="1221994726#0" to="1221994726#1" type="hcmc_fleet"/>
    <trip id="44" depart="1870.40" from="1200728225#0" to="1200728225#2" type="hcmc_fleet"/>
    <trip id="45" depart="1872.00" from="1200728225#4" to="1221994726#2" type="hcmc_fleet"/>
    <trip id="46" depart="1873.60" from="1200728225#2" to="1200728225#2" type="hcmc_fleet"/>
    <trip id="47" depart="1875.20" from="1200728225#2" to="1267462159#2" type="hcmc_fleet"/>
    <trip id="48" depart="1876.80" from="1422795954" to="1221994726#2" type="hcmc_fleet"/>
    <trip id="49" depart="1878.40" from="1200728225#0" to="1221994726#0" type="hcmc_fleet"/>
    <trip id="50" depart="1880.00" from="1221994726#0" to="1221994726#1" type="hcmc_fleet"/>
    <trip id="51" depart="1881.60" from="1265822568#2" to="1265822568#2" type="hcmc_fleet"/>
    <trip id="52" depart="1883.20" from="1422795954" to="1200728225#0" type="hcmc_fleet"/>
    <trip id="53" depart="1884.80" from="1200728225#1" to="1221994726#0" type="hcmc_fleet"/>
    <trip id="54" depart="1886.40" from="1200728225#2" to="1267462159#2" type="hcmc_fleet"/>
    <trip id="55" depart="1888.00" from="1221994726#0" to="1267462159#1" type="hcmc_fleet"/>
    <trip id="56" depart="1889.60" from="1265822568#0" to="1163556238#1" type="hcmc_fleet"/>
    <trip id="57" depart="1891.20" from="1422795954" to="1267462159#1" type="hcmc_fleet"/>
    <trip id="58" depart="1892.80" from="1422795954" to="1267462159#2" type="hcmc_fleet"/>
    <trip id="59" depart="1894.40" from="1200728225#4" to="1267462159#3" type="hcmc_fleet"/>
    <trip id="60" depart="1896.00" from="1221994726#0" to="1221994726#0" type="hcmc_fleet"/>
    <trip id="61" depart="1897.60" from="1422795954" to="1267462159#3" type="hcmc_fleet"/>
    <trip id="62" depart="1899.20" from="1265822568#0" to="1265822568#2" type="hcmc_fleet"/>
    <trip id="63" depart="1900.80" from="1200728225#1" to="1200728225#3" type="hcmc_fleet"/>
    <trip id="64" depart="1902.40" from="1422795954" to="1221994726#2" type="hcmc_fleet"/>
    <trip id="65" depart="1904.00" from="1265822568#0" to="1265822568#3" type="hcmc_fleet"/>
    <trip id="66" depart="1905.60" from="-1163556238#1" to="1221994726#2" type="hcmc_fleet"/>
    <trip id="67" depart="1907.20" from="1200728225#1" to="1267462159#3" type="hcmc_fleet"/>
    <trip id="68" depart="1908.80" from="1200728225#0" to="1200728225#1" type="hcmc_fleet"/>
    <trip id="69" depart="1910.40" from="1265822568#0" to="1265822568#2" type="hcmc_fleet"/>
    <trip id="70" depart="1912.00" from="1265822568#0" to="1265822568#1" type="hcmc_fleet"/>
    <trip id="71" depart="1913.60" from="1221994726#0" to="1221994726#2" type="hcmc_fleet"/>
    <trip id="72" depart="1915.20" from="1200728225#2" to="1200728225#4" type="hcmc_fleet"/>
    <trip id="73" depart="1916.80" from="1265822568#2" to="1200728225#3" type="hcmc_fleet"/>
    <trip id="74" depart="1918.40" from="1200728225#0" to="1221994726#0" type="hcmc_fleet"/>
    <trip id="75" depart="1920.00" from="1422795954" to="1267462159#3" type="hcmc_fleet"/>
    <trip id="76" depart="1921.60" from="1200728225#0" to="1200728225#2" type="hcmc_fleet"/>
    <trip id="77" depart="1923.20" from="1200728225#2" to="1267462159#2" type="hcmc_fleet"/>
    <trip id="78" depart="1924.80" from="1267462159#2" to="1267462159#2" type="hcmc_fleet"/>
    <trip id="79" depart="1926.40" from="1265822568#1" to="1267462159#3" type="hcmc_fleet"/>
    <trip id="80" depart="1928.00" from="1265822568#1" to="1163556238#1" type="hcmc_fleet"/>
    <trip id="81" depart="1929.60" from="1265822568#1" to="1267462159#3" type="hcmc_fleet"/>
    <trip id="82" depart="1931.20" from="1200728225#0" to="1221994726#2" type="hcmc_fleet"/>
    <trip id="83" depart="1932.80" from="1265822568#2" to="1200728225#2" type="hcmc_fleet"/>
    <trip id="84" depart="1934.40" from="1265822568#1" to="1200728225#2" type="hcmc_fleet"/>
    <trip id="85" depart="1936.00" from="1265822568#1" to="1200728225#2" type="hcmc_fleet"/>
    <trip id="86" depart="1937.60" from="1265822568#3" to="1221994726#2" type="hcmc_fleet"/>
    <trip id="87" depart="1939.20" from="1200728225#0" to="1267462159#2" type="hcmc_fleet"/>
    <trip id="88" depart="1940.80" from="1200728225#3" to="1267462159#2" type="hcmc_fleet"/>
    <trip id="89" depart="1942.40" from="1265822568#3" to="1267462159#1" type="hcmc_fleet"/>
    <trip id="90" depart="1944.00" from="1265822568#3" to="1267462159#2" type="hcmc_fleet"/>
    <trip id="91" depart="1945.60" from="1200728225#1" to="1267462159#2" type="hcmc_fleet"/>
    <trip id="92" depart="1947.20" from="1267462159#1" to="1267462159#3" type="hcmc_fleet"/>
    <trip id="93" depart="1948.80" from="1267462159#1" to="1267462159#2" type="hcmc_fleet"/>
    <trip id="94" depart="1950.40" from="1200728225#3" to="1267462159#2" type="hcmc_fleet"/>
    <trip id="95" depart="1952.00" from="1267462159#1" to="1267462159#1" type="hcmc_fleet"/>
    <trip id="96" depart="1953.60" from="1200728225#2" to="1267462159#1" type="hcmc_fleet"/>
    <trip id="97" depart="1955.20" from="1265822568#3" to="1200728225#2" type="hcmc_fleet"/>
    <trip id="98" depart="1956.80" from="1200728225#3" to="1267462159#1" type="hcmc_fleet"/>
    <trip id="99" depart="1958.40" from="1422795954" to="1200728225#3" type="hcmc_fleet"/>
    <trip id="100" depart="1960.00" from="1265822568#1" to="1200728225#4" type="hcmc_fleet"/>
    <trip id="101" depart="1961.60" from="1422795954" to="1221994726#2" type="hcmc_fleet"/>
    <trip id="102" depart="1963.20" from="1422795954" to="1200728225#0" type="hcmc_fleet"/>
    <trip id="103" depart="1964.80" from="1422795954" to="1200728225#1" type="hcmc_fleet"/>
    <trip id="104" depart="1966.40" from="1422795954" to="1200728225#2" type="hcmc_fleet"/>
    <trip id="105" depart="1968.00" from="1200728225#0" to="1221994726#0" type="hcmc_fleet"/>
    <trip id="106" depart="1969.60" from="1265822568#2" to="1200728225#3" type="hcmc_fleet"/>
    <trip id="107" depart="1971.20" from="1265822568#1" to="1221994726#1" type="hcmc_fleet"/>
    <trip id="108" depart="1972.80" from="1200728225#4" to="1221994726#2" type="hcmc_fleet"/>
    <trip id="109" depart="1974.40" from="-1163556238#1" to="1267462159#2" type="hcmc_fleet"/>
    <trip id="110" depart="1976.00" from="1265822568#0" to="1265822568#2" type="hcmc_fleet"/>
    <trip id="111" depart="1977.60" from="1265822568#1" to="1200728225#3" type="hcmc_fleet"/>
    <trip id="112" depart="1979.20" from="1200728225#3" to="1267462159#1" type="hcmc_fleet"/>
    <trip id="113" depart="1980.80" from="1265822568#2" to="1200728225#3" type="hcmc_fleet"/>
    <trip id="114" depart="1982.40" from="1200728225#3" to="1221994726#0" type="hcmc_fleet"/>
    <trip id="115" depart="1984.00" from="1200728225#0" to="1221994726#0" type="hcmc_fleet"/>
    <trip id="116" depart="1985.60" from="1200728225#3" to="1221994726#2" type="hcmc_fleet"/>
    <trip id="117" depart="1987.20" from="1221994726#0" to="1221994726#2" type="hcmc_fleet"/>
    <trip id="118" depart="1988.80" from="1265822568#1" to="1221994726#0" type="hcmc_fleet"/>
    <trip id="119" depart="1990.40" from="1200728225#0" to="1221994726#1" type="hcmc_fleet"/>
    <trip id="120" depart="1992.00" from="1265822568#1" to="1200728225#4" type="hcmc_fleet"/>
    <trip id="121" depart="1993.60" from="1265822568#2" to="1200728225#2" type="hcmc_fleet"/>
    <trip id="122" depart="1995.20" from="1200728225#1" to="1163556238#1" type="hcmc_fleet"/>
    <trip id="123" depart="1996.80" from="1200728225#2" to="1221994726#1" type="hcmc_fleet"/>
    <trip id="124" depart="1998.40" from="1265822568#1" to="1163556238#1" type="hcmc_fleet"/>
    <trip id="125" depart="2000.00" from="1265822568#3" to="1265822568#3" type="hcmc_fleet"/>
    <trip id="126" depart="2001.60" from="1200728225#0" to="1221994726#0" type="hcmc_fleet"/>
    <trip id="127" depart="2003.20" from="1200728225#1" to="1267462159#3" type="hcmc_fleet"/>
    <trip id="128" depart="2004.80" from="1200728225#2" to="1267462159#1" type="hcmc_fleet"/>
    <trip id="129" depart="2006.40" from="1221994726#0" to="1267462159#1" type="hcmc_fleet"/>
    <trip id="130" depart="2008.00" from="1265822568#2" to="1267462159#3" type="hcmc_fleet"/>
    <trip id="131" depart="2009.60" from="1265822568#0" to="1267462159#3" type="hcmc_fleet"/>
    <trip id="132" depart="2011.20" from="1265822568#2" to="1221994726#1" type="hcmc_fleet"/>
    <trip id="133" depart="2012.80" from="1265822568#3" to="1221994726#1" type="hcmc_fleet"/>
    <trip id="134" depart="2014.40" from="1265822568#1" to="1200728225#3" type="hcmc_fleet"/>
    <trip id="135" depart="2016.00" from="1200728225#0" to="1200728225#3" type="hcmc_fleet"/>
    <trip id="136" depart="2017.60" from="1200728225#3" to="1200728225#3" type="hcmc_fleet"/>
    <trip id="137" depart="2019.20" from="1265822568#2" to="1163556238#1" type="hcmc_fleet"/>
    <trip id="138" depart="2020.80" from="1221994726#0" to="1221994726#2" type="hcmc_fleet"/>
    <trip id="139" depart="2022.40" from="1221994726#0" to="1267462159#2" type="hcmc_fleet"/>
    <trip id="140" depart="2024.00" from="1265822568#0" to="1265822568#2" type="hcmc_fleet"/>
    <trip id="141" depart="2025.60" from="1200728225#4" to="1163556238#1" type="hcmc_fleet"/>
    <trip id="142" depart="2027.20" from="1267462159#1" to="1267462159#3" type="hcmc_fleet"/>
    <trip id="143" depart="2028.80" from="1265822568#0" to="1265822568#1" type="hcmc_fleet"/>
    <trip id="144" depart="2030.40" from="1200728225#2" to="1200728225#2" type="hcmc_fleet"/>
    <trip id="145" depart="2032.00" from="1265822568#1" to="1163556238#1" type="hcmc_fleet"/>
    <trip id="146" depart="2033.60" from="1200728225#4" to="1221994726#2" type="hcmc_fleet"/>
    <trip id="147" depart="2035.20" from="1200728225#1" to="1221994726#0" type="hcmc_fleet"/>
    <trip id="148" depart="2036.80" from="1200728225#2" to="1200728225#3" type="hcmc_fleet"/>
    <trip id="149" depart="2038.40" from="1265822568#3" to="1200728225#4" type="hcmc_fleet"/>
    <trip id="150" depart="2040.00" from="1265822568#3" to="1267462159#1" type="hcmc_fleet"/>
    <trip id="151" depart="2041.60" from="-1163556238#1" to="1221994726#2" type="hcmc_fleet"/>
    <trip id="152" depart="2043.20" from="1422795954" to="1200728225#4" type="hcmc_fleet"/>
    <trip id="153" depart="2044.80" from="1265822568#1" to="1265822568#3" type="hcmc_fleet"/>
    <trip id="154" depart="2046.40" from="1265822568#1" to="1265822568#3" type="hcmc_fleet"/>
    <trip id="155" depart="2048.00" from="1422795954" to="1200728225#1" type="hcmc_fleet"/>
    <trip id="156" depart="2049.60" from="1265822568#0" to="1200728225#2" type="hcmc_fleet"/>
    <trip id="157" depart="2051.20" from="1265822568#2" to="1265822568#3" type="hcmc_fleet"/>
    <trip id="158" depart="2052.80" from="1267462159#1" to="1267462159#3" type="hcmc_fleet"/>
    <trip id="159" depart="2054.40" from="1200728225#0" to="1163556238#1" type="hcmc_fleet"/>
    <trip id="160" depart="2056.00" from="1422795954" to="1200728225#4" type="hcmc_fleet"/>
    <trip id="161" depart="2057.60" from="1200728225#0" to="1267462159#3" type="hcmc_fleet"/>
    <trip id="162" depart="2059.20" from="1265822568#3" to="1200728225#4" type="hcmc_fleet"/>
    <trip id="163" depart="2060.80" from="1267462159#1" to="1267462159#1" type="hcmc_fleet"/>
    <trip id="164" depart="2062.40" from="1200728225#0" to="1267462159#3" type="hcmc_fleet"/>
    <trip id="165" depart="2064.00" from="1265822568#1" to="1267462159#1" type="hcmc_fleet"/>
    <trip id="166" depart="2065.60" from="1265822568#2" to="1221994726#0" type="hcmc_fleet"/>
    <trip id="167" depart="2067.20" from="1265822568#3" to="1267462159#3" type="hcmc_fleet"/>
    <trip id="168" depart="2068.80" from="1200728225#3" to="1267462159#1" type="hcmc_fleet"/>
    <trip id="169" depart="2070.40" from="1265822568#0" to="1221994726#1" type="hcmc_fleet"/>
    <trip id="170" depart="2072.00" from="1200728225#3" to="1267462159#1" type="hcmc_fleet"/>
    <trip id="171" depart="2073.60" from="1200728225#4" to="1163556238#1" type="hcmc_fleet"/>
    <trip id="172" depart="2075.20" from="1200728225#4" to="1267462159#2" type="hcmc_fleet"/>
    <trip id="173" depart="2076.80" from="1265822568#2" to="1200728225#3" type="hcmc_fleet"/>
    <trip id="174" depart="2078.40" from="-1163556238#1" to="1267462159#3" type="hcmc_fleet"/>
    <trip id="175" depart="2080.00" from="1200728225#0" to="1200728225#2" type="hcmc_fleet"/>
    <trip id="176" depart="2081.60" from="1265822568#2" to="1200728225#3" type="hcmc_fleet"/>
    <trip id="177" depart="2083.20" from="1265822568#0" to="1221994726#1" type="hcmc_fleet"/>
    <trip id="178" depart="2084.80" from="1265822568#3" to="1200728225#3" type="hcmc_fleet"/>
    <trip id="179" depart="2086.40" from="1265822568#2" to="1200728225#3" type="hcmc_fleet"/>
    <trip id="180" depart="2088.00" from="1265822568#0" to="1265822568#3" type="hcmc_fleet"/>
    <trip id="181" depart="2089.60" from="1200728225#1" to="1200728225#2" type="hcmc_fleet"/>
    <trip id="182" depart="2091.20" from="1422795954" to="1221994726#1" type="hcmc_fleet"/>
    <trip id="183" depart="2092.80" from="1200728225#1" to="1200728225#2" type="hcmc_fleet"/>
    <trip id="184" depart="2094.40" from="1200728225#1" to="1163556238#1" type="hcmc_fleet"/>
    <trip id="185" depart="2096.00" from="1265822568#0" to="1200728225#3" type="hcmc_fleet"/>
    <trip id="186" depart="2097.60" from="1422795954" to="1221994726#2" type="hcmc_fleet"/>
    <trip id="187" depart="2099.20" from="1200728225#1" to="1163556238#1" type="hcmc_fleet"/>
    <trip id="188" depart="2100.80" from="1422795954" to="1221994726#1" type="hcmc_fleet"/>
    <trip id="189" depart="2102.40" from="1265822568#0" to="1200728225#3" type="hcmc_fleet"/>
    <trip id="190" depart="2104.00" from="1422795954" to="1200728225#0" type="hcmc_fleet"/>
    <trip id="191" depart="2105.60" from="1265822568#3" to="1200728225#2" type="hcmc_fleet"/>
    <trip id="192" depart="2107.20" from="1221994726#0" to="1267462159#1" type="hcmc_fleet"/>
    <trip id="193" depart="2108.80" from="1422795954" to="1200728225#3" type="hcmc_fleet"/>
    <trip id="194" depart="2110.40" from="1265822568#1" to="1265822568#1" type="hcmc_fleet"/>
    <trip id="195" depart="2112.00" from="1265822568#3" to="1267462159#3" type="hcmc_fleet"/>
    <trip id="196" depart="2113.60" from="1200728225#2" to="1200728225#2" type="hcmc_fleet"/>
    <trip id="197" depart="2115.20" from="-1163556238#1" to="1221994726#0" type="hcmc_fleet"/>
    <trip id="198" depart="2116.80" from="1265822568#0" to="1200728225#3" type="hcmc_fleet"/>
    <trip id="199" depart="2118.40" from="1265822568#2" to="1221994726#0" type="hcmc_fleet"/>
    <trip id="200" depart="2120.00" from="1265822568#2" to="1267462159#2" type="hcmc_fleet"/>
    <trip id="201" depart="2121.60" from="1265822568#1" to="1267462159#3" type="hcmc_fleet"/>
    <trip id="202" depart="2123.20" from="1221994726#0" to="1221994726#2" type="hcmc_fleet"/>
    <trip id="203" depart="2124.80" from="1265822568#1" to="1267462159#2" type="hcmc_fleet"/>
    <trip id="204" depart="2126.40" from="1200728225#1" to="1200728225#3" type="hcmc_fleet"/>
    <trip id="205" depart="2128.00" from="1265822568#3" to="1221994726#2" type="hcmc_fleet"/>
    <trip id="206" depart="2129.60" from="1265822568#2" to="1265822568#2" type="hcmc_fleet"/>
    <trip id="207" depart="2131.20" from="1422795954" to="1221994726#1" type="hcmc_fleet"/>
    <trip id="208" depart="2132.80" from="-1163556238#1" to="1221994726#0" type="hcmc_fleet"/>
    <trip id="209" depart="2134.40" from="1200728225#0" to="1267462159#3" type="hcmc_fleet"/>
    <trip id="210" depart="2136.00" from="1422795954" to="1267462159#3" type="hcmc_fleet"/>
    <trip id="211" depart="2137.60" from="1265822568#2" to="1200728225#3" type="hcmc_fleet"/>
    <trip id="212" depart="2139.20" from="1265822568#0" to="1265822568#1" type="hcmc_fleet"/>
    <trip id="213" depart="2140.80" from="1265822568#2" to="1267462159#1" type="hcmc_fleet"/>
    <trip id="214" depart="2142.40" from="1200728225#3" to="1267462159#3" type="hcmc_fleet"/>
    <trip id="215" depart="2144.00" from="1200728225#3" to="1267462159#3" type="hcmc_fleet"/>
    <trip id="216" depart="2145.60" from="1221994726#0" to="1221994726#1" type="hcmc_fleet"/>
    <trip id="217" depart="2147.20" from="1265822568#0" to="1221994726#0" type="hcmc_fleet"/>
    <trip id="218" depart="2148.80" from="1200728225#1" to="1200728225#4" type="hcmc_fleet"/>
    <trip id="219" depart="2150.40" from="1265822568#3" to="1200728225#2" type="hcmc_fleet"/>
    <trip id="220" depart="2152.00" from="1265822568#0" to="1267462159#2" type="hcmc_fleet"/>
    <trip id="221" depart="2153.60" from="1200728225#0" to="1267462159#3" type="hcmc_fleet"/>
    <trip id="222" depart="2155.20" from="1265822568#1" to="1200728225#2" type="hcmc_fleet"/>
    <trip id="223" depart="2156.80" from="1200728225#1" to="1221994726#2" type="hcmc_fleet"/>
    <trip id="224" depart="2158.40" from="1422795954" to="1267462159#2" type="hcmc_fleet"/>
    <trip id="225" depart="2160.00" from="1265822568#2" to="1221994726#1" type="hcmc_fleet"/>
    <trip id="226" depart="2161.60" from="1200728225#3" to="1267462159#1" type="hcmc_fleet"/>
    <trip id="227" depart="2163.20" from="1422795954" to="1200728225#2" type="hcmc_fleet"/>
    <trip id="228" depart="2164.80" from="1265822568#0" to="1200728225#4" type="hcmc_fleet"/>
    <trip id="229" depart="2166.40" from="1221994726#0" to="1267462159#3" type="hcmc_fleet"/>
    <trip id="230" depart="2168.00" from="1200728225#3" to="1200728225#3" type="hcmc_fleet"/>
    <trip id="231" depart="2169.60" from="1265822568#0" to="1267462159#3" type="hcmc_fleet"/>
    <trip id="232" depart="2171.20" from="1265822568#0" to="1200728225#4" type="hcmc_fleet"/>
    <trip id="233" depart="2172.80" from="1265822568#0" to="1221994726#2" type="hcmc_fleet"/>
    <trip id="234" depart="2174.40" from="1265822568#0" to="1200728225#2" type="hcmc_fleet"/>
    <trip id="235" depart="2176.00" from="1265822568#3" to="1163556238#1" type="hcmc_fleet"/>
    <trip id="236" depart="2177.60" from="1265822568#1" to="1267462159#1" type="hcmc_fleet"/>
    <trip id="237" depart="2179.20" from="1422795954" to="1221994726#1" type="hcmc_fleet"/>
    <trip id="238" depart="2180.80" from="-1163556238#1" to="1221994726#1" type="hcmc_fleet"/>
    <trip id="239" depart="2182.40" from="1265822568#0" to="1267462159#2" type="hcmc_fleet"/>
    <trip id="240" depart="2184.00" from="1265822568#2" to="1221994726#0" type="hcmc_fleet"/>
    <trip id="241" depart="2185.60" from="1265822568#1" to="1267462159#1" type="hcmc_fleet"/>
    <trip id="242" depart="2187.20" from="1267462159#1" to="1267462159#1" type="hcmc_fleet"/>
    <trip id="243" depart="2188.80" from="1265822568#2" to="1265822568#3" type="hcmc_fleet"/>
    <trip id="244" depart="2190.40" from="1267462159#2" to="1267462159#3" type="hcmc_fleet"/>
    <trip id="245" depart="2192.00" from="1265822568#3" to="1221994726#0" type="hcmc_fleet"/>
    <trip id="246" depart="2193.60" from="1265822568#2" to="1267462159#2" type="hcmc_fleet"/>
    <trip id="247" depart="2195.20" from="1200728225#3" to="1200728225#4" type="hcmc_fleet"/>
    <trip id="248" depart="2196.80" from="1200728225#1" to="1221994726#1" type="hcmc_fleet"/>
    <trip id="249" depart="2198.40" from="1265822568#0" to="1265822568#3" type="hcmc_fleet"/>
    <trip id="250" depart="2200.00" from="1200728225#2" to="1267462159#2" type="hcmc_fleet"/>
    <trip id="251" depart="2201.60" from="1200728225#1" to="1221994726#0" type="hcmc_fleet"/>
    <trip id="252" depart="2203.20" from="1200728225#2" to="1200728225#2" type="hcmc_fleet"/>
    <trip id="253" depart="2204.80" from="-1163556238#1" to="1267462159#1" type="hcmc_fleet"/>
    <trip id="254" depart="2206.40" from="1200728225#1" to="1221994726#0" type="hcmc_fleet"/>
    <trip id="255" depart="2208.00" from="1200728225#4" to="1221994726#2" type="hcmc_fleet"/>
    <trip id="256" depart="2209.60" from="1265822568#1" to="1221994726#0" type="hcmc_fleet"/>
    <trip id="257" depart="2211.20" from="1200728225#2" to="1267462159#1" type="hcmc_fleet"/>
    <trip id="258" depart="2212.80" from="1200728225#1" to="1200728225#4" type="hcmc_fleet"/>
    <trip id="259" depart="2214.40" from="1265822568#0" to="1221994726#2" type="hcmc_fleet"/>
    <trip id="260" depart="2216.00" from="1422795954" to="1200728225#3" type="hcmc_fleet"/>
    <trip id="261" depart="2217.60" from="1200728225#3" to="1221994726#2" type="hcmc_fleet"/>
    <trip id="262" depart="2219.20" from="1265822568#2" to="1265822568#3" type="hcmc_fleet"/>
    <trip id="263" depart="2220.80" from="1265822568#1" to="1200728225#4" type="hcmc_fleet"/>
    <trip id="264" depart="2222.40" from="1265822568#1" to="1265822568#1" type="hcmc_fleet"/>
    <trip id="265" depart="2224.00" from="1265822568#2" to="1265822568#2" type="hcmc_fleet"/>
    <trip id="266" depart="2225.60" from="1265822568#1" to="1267462159#1" type="hcmc_fleet"/>
    <trip id="267" depart="2227.20" from="1265822568#1" to="1267462159#2" type="hcmc_fleet"/>
    <trip id="268" depart="2228.80" from="1265822568#1" to="1200728225#3" type="hcmc_fleet"/>
    <trip id="269" depart="2230.40" from="1221994726#0" to="1221994726#2" type="hcmc_fleet"/>
    <trip id="270" depart="2232.00" from="1265822568#0" to="1267462159#3" type="hcmc_fleet"/>
    <trip id="271" depart="2233.60" from="1422795954" to="1200728225#1" type="hcmc_fleet"/>
    <trip id="272" depart="2235.20" from="1422795954" to="1267462159#1" type="hcmc_fleet"/>
    <trip id="273" depart="2236.80" from="1265822568#2" to="1267462159#3" type="hcmc_fleet"/>
    <trip id="274" depart="2238.40" from="1422795954" to="1267462159#1" type="hcmc_fleet"/>
    <trip id="275" depart="2240.00" from="-1163556238#1" to="1221994726#2" type="hcmc_fleet"/>
    <trip id="276" depart="2241.60" from="1265822568#2" to="1221994726#2" type="hcmc_fleet"/>
    <trip id="277" depart="2243.20" from="1267462159#1" to="1267462159#3" type="hcmc_fleet"/>
    <trip id="278" depart="2244.80" from="1200728225#0" to="1200728225#2" type="hcmc_fleet"/>
    <trip id="279" depart="2246.40" from="-1163556238#1" to="1267462159#2" type="hcmc_fleet"/>
    <trip id="280" depart="2248.00" from="1265822568#0" to="1267462159#2" type="hcmc_fleet"/>
    <trip id="281" depart="2249.60" from="1200728225#2" to="1163556238#1" type="hcmc_fleet"/>
    <trip id="282" depart="2251.20" from="1267462159#1" to="1267462159#2" type="hcmc_fleet"/>
    <trip id="283" depart="2252.80" from="1200728225#3" to="1221994726#0" type="hcmc_fleet"/>
    <trip id="284" depart="2254.40" from="1200728225#1" to="1267462159#3" type="hcmc_fleet"/>
    <trip id="285" depart="2256.00" from="1200728225#3" to="1221994726#1" type="hcmc_fleet"/>
    <trip id="286" depart="2257.60" from="1200728225#0" to="1267462159#2" type="hcmc_fleet"/>
    <trip id="287" depart="2259.20" from="1200728225#1" to="1221994726#0" type="hcmc_fleet"/>
    <trip id="288" depart="2260.80" from="1265822568#2" to="1265822568#3" type="hcmc_fleet"/>
    <trip id="289" depart="2262.40" from="1422795954" to="1221994726#0" type="hcmc_fleet"/>
    <trip id="290" depart="2264.00" from="1422795954" to="1163556238#1" type="hcmc_fleet"/>
    <trip id="291" depart="2265.60" from="1200728225#4" to="1221994726#0" type="hcmc_fleet"/>
    <trip id="292" depart="2267.20" from="1422795954" to="1267462159#1" type="hcmc_fleet"/>
    <trip id="293" depart="2268.80" from="1265822568#0" to="1267462159#3" type="hcmc_fleet"/>
    <trip id="294" depart="2270.40" from="1200728225#4" to="1200728225#4" type="hcmc_fleet"/>
    <trip id="295" depart="2272.00" from="1265822568#1" to="1265822568#1" type="hcmc_fleet"/>
    <trip id="296" depart="2273.60" from="1265822568#0" to="1163556238#1" type="hcmc_fleet"/>
    <trip id="297" depart="2275.20" from="1265822568#3" to="1200728225#2" type="hcmc_fleet"/>
    <trip id="298" depart="2276.80" from="1200728225#0" to="1221994726#2" type="hcmc_fleet"/>
    <trip id="299" depart="2278.40" from="1200728225#2" to="1200728225#2" type="hcmc_fleet"/>
    <trip id="300" depart="2280.00" from="1200728225#1" to="1267462159#2" type="hcmc_fleet"/>
    <trip id="301" depart="2281.60" from="-1163556238#1" to="1267462159#1" type="hcmc_fleet"/>
    <trip id="302" depart="2283.20" from="1265822568#1" to="1163556238#1" type="hcmc_fleet"/>
    <trip id="303" depart="2284.80" from="1200728225#2" to="1200728225#3" type="hcmc_fleet"/>
    <trip id="304" depart="2286.40" from="1200728225#1" to="1163556238#1" type="hcmc_fleet"/>
    <trip id="305" depart="2288.00" from="1265822568#3" to="1221994726#1" type="hcmc_fleet"/>
    <trip id="306" depart="2289.60" from="1265822568#3" to="1221994726#1" type="hcmc_fleet"/>
    <trip id="307" depart="2291.20" from="1265822568#3" to="1221994726#1" type="hcmc_fleet"/>
    <trip id="308" depart="2292.80" from="1200728225#0" to="1221994726#1" type="hcmc_fleet"/>
    <trip id="309" depart="2294.40" from="1422795954" to="1163556238#1" type="hcmc_fleet"/>
    <trip id="310" depart="2296.00" from="1265822568#3" to="1267462159#2" type="hcmc_fleet"/>
    <trip id="311" depart="2297.60" from="1422795954" to="1163556238#1" type="hcmc_fleet"/>
    <trip id="312" depart="2299.20" from="1265822568#2" to="1221994726#1" type="hcmc_fleet"/>
    <trip id="313" depart="2300.80" from="1265822568#1" to="1221994726#2" type="hcmc_fleet"/>